version 3
run General-0-20251114-14:20:35-5960
attr configname General
attr datetime 20251114-14:20:35
attr datetimef 20251114-142035
attr experiment General
attr inifile omnetpp.ini
attr iterationvars ""
attr iterationvarsd ""
attr iterationvarsf ""
attr measurement ""
attr network Rede_Satelite_LEO
attr processid 5960
attr repetition 0
attr replication #0
attr resultdir results
attr runnumber 0
attr seedset 0
config image-path ../inet4.5/images
config network Rede_Satelite_LEO
config sim-time-limit 60s
config **.orgA.numApps 2
config **.orgA.app[0].typename UdpBasicApp
config **.orgA.app[0].destAddresses "\"orgB\""
config **.orgA.app[0].destPort 5000
config **.orgA.app[0].messageLength 1024B
config **.orgA.app[0].sendInterval 0.1s
config **.orgA.app[0].startTime 1.1s
config **.orgA.app[1].typename UdpSink
config **.orgA.app[1].localPort 6000
config **.orgB.numApps 2
config **.orgB.app[0].typename UdpSink
config **.orgB.app[0].localPort 5000
config **.orgB.app[1].typename UdpBasicApp
config **.orgB.app[1].destAddresses "\"orgA\""
config **.orgB.app[1].destPort 6000
config **.orgB.app[1].messageLength 1024B
config **.orgB.app[1].sendInterval 0.1s
config **.orgB.app[1].startTime 1s
config **.configurator.addStaticRoutes true
config **.configurator.addDefaultRoutes true
config **.configurator.addSubnetRoutes true
config **.configurator.optimizeRoutes true
config **.recordStats true
config **.vector-recording true
config **.scalar-recording true
config **.thruputMeteringChannel.recordStats true
config **.udpApp[*].recordStats true
config **.udpApp[*].packetDelay.result-recording-modes all
config **.udpApp[*].packetJitter.result-recording-modes all
config **.udpApp[*].throughput.result-recording-modes all
config **.bitErrorRate.result-recording-modes all
config output-scalar-file results/satelite_leo.sca
config output-vector-file results/satelite_leo.vec

par Rede_Satelite_LEO.orgA.ethg$o[0].channel typename "\"ethernetline\""
par Rede_Satelite_LEO.orgA.ethg$o[0].channel disabled false
attr mutable ""
par Rede_Satelite_LEO.orgA.ethg$o[0].channel delay 0.001s
attr mutable ""
attr unit s
par Rede_Satelite_LEO.orgA.ethg$o[0].channel datarate 1e+08bps
attr mutable ""
attr unit bps
par Rede_Satelite_LEO.orgA.ethg$o[0].channel ber 0
attr mutable ""
par Rede_Satelite_LEO.orgA.ethg$o[0].channel per 0
attr mutable ""
par Rede_Satelite_LEO.orgA.ethg$o[0].channel displayAsTooltip false
par Rede_Satelite_LEO.orgA.ethg$o[0].channel thruputDisplayFormat "\"\""
par Rede_Satelite_LEO.routerA.ethg$o[0].channel typename "\"ethernetline\""
par Rede_Satelite_LEO.routerA.ethg$o[0].channel disabled false
attr mutable ""
par Rede_Satelite_LEO.routerA.ethg$o[0].channel delay 0.001s
attr mutable ""
attr unit s
par Rede_Satelite_LEO.routerA.ethg$o[0].channel datarate 1e+08bps
attr mutable ""
attr unit bps
par Rede_Satelite_LEO.routerA.ethg$o[0].channel ber 0
attr mutable ""
par Rede_Satelite_LEO.routerA.ethg$o[0].channel per 0
attr mutable ""
par Rede_Satelite_LEO.routerA.ethg$o[0].channel displayAsTooltip false
par Rede_Satelite_LEO.routerA.ethg$o[0].channel thruputDisplayFormat "\"\""
par Rede_Satelite_LEO.orgB.ethg$o[0].channel typename "\"ethernetline\""
par Rede_Satelite_LEO.orgB.ethg$o[0].channel disabled false
attr mutable ""
par Rede_Satelite_LEO.orgB.ethg$o[0].channel delay 0.001s
attr mutable ""
attr unit s
par Rede_Satelite_LEO.orgB.ethg$o[0].channel datarate 1e+08bps
attr mutable ""
attr unit bps
par Rede_Satelite_LEO.orgB.ethg$o[0].channel ber 0
attr mutable ""
par Rede_Satelite_LEO.orgB.ethg$o[0].channel per 0
attr mutable ""
par Rede_Satelite_LEO.orgB.ethg$o[0].channel displayAsTooltip false
par Rede_Satelite_LEO.orgB.ethg$o[0].channel thruputDisplayFormat "\"\""
par Rede_Satelite_LEO.routerB.ethg$o[0].channel typename "\"ethernetline\""
par Rede_Satelite_LEO.routerB.ethg$o[0].channel disabled false
attr mutable ""
par Rede_Satelite_LEO.routerB.ethg$o[0].channel delay 0.001s
attr mutable ""
attr unit s
par Rede_Satelite_LEO.routerB.ethg$o[0].channel datarate 1e+08bps
attr mutable ""
attr unit bps
par Rede_Satelite_LEO.routerB.ethg$o[0].channel ber 0
attr mutable ""
par Rede_Satelite_LEO.routerB.ethg$o[0].channel per 0
attr mutable ""
par Rede_Satelite_LEO.routerB.ethg$o[0].channel displayAsTooltip false
par Rede_Satelite_LEO.routerB.ethg$o[0].channel thruputDisplayFormat "\"\""
par Rede_Satelite_LEO.routerA.pppg$o[0].channel typename "\"uplink\""
par Rede_Satelite_LEO.routerA.pppg$o[0].channel disabled false
attr mutable ""
par Rede_Satelite_LEO.routerA.pppg$o[0].channel delay 0.027894s
attr mutable ""
attr unit s
par Rede_Satelite_LEO.routerA.pppg$o[0].channel datarate 2e+07bps
attr mutable ""
attr unit bps
par Rede_Satelite_LEO.routerA.pppg$o[0].channel ber 0
attr mutable ""
par Rede_Satelite_LEO.routerA.pppg$o[0].channel per 0.0001
attr mutable ""
par Rede_Satelite_LEO.routerA.pppg$o[0].channel displayAsTooltip false
par Rede_Satelite_LEO.routerA.pppg$o[0].channel thruputDisplayFormat "\"\""
par Rede_Satelite_LEO.satelite.pppg$o[0].channel typename "\"uplink\""
par Rede_Satelite_LEO.satelite.pppg$o[0].channel disabled false
attr mutable ""
par Rede_Satelite_LEO.satelite.pppg$o[0].channel delay 0.0317696s
attr mutable ""
attr unit s
par Rede_Satelite_LEO.satelite.pppg$o[0].channel datarate 2e+07bps
attr mutable ""
attr unit bps
par Rede_Satelite_LEO.satelite.pppg$o[0].channel ber 0
attr mutable ""
par Rede_Satelite_LEO.satelite.pppg$o[0].channel per 0.0001
attr mutable ""
par Rede_Satelite_LEO.satelite.pppg$o[0].channel displayAsTooltip false
par Rede_Satelite_LEO.satelite.pppg$o[0].channel thruputDisplayFormat "\"\""
par Rede_Satelite_LEO.satelite.pppg$o[1].channel typename "\"downlink\""
par Rede_Satelite_LEO.satelite.pppg$o[1].channel disabled false
attr mutable ""
par Rede_Satelite_LEO.satelite.pppg$o[1].channel delay 0.0262789s
attr mutable ""
attr unit s
par Rede_Satelite_LEO.satelite.pppg$o[1].channel datarate 1e+08bps
attr mutable ""
attr unit bps
par Rede_Satelite_LEO.satelite.pppg$o[1].channel ber 0
attr mutable ""
par Rede_Satelite_LEO.satelite.pppg$o[1].channel per 5e-05
attr mutable ""
par Rede_Satelite_LEO.satelite.pppg$o[1].channel displayAsTooltip false
par Rede_Satelite_LEO.satelite.pppg$o[1].channel thruputDisplayFormat "\"\""
par Rede_Satelite_LEO.routerB.pppg$o[0].channel typename "\"downlink\""
par Rede_Satelite_LEO.routerB.pppg$o[0].channel disabled false
attr mutable ""
par Rede_Satelite_LEO.routerB.pppg$o[0].channel delay 0.0260798s
attr mutable ""
attr unit s
par Rede_Satelite_LEO.routerB.pppg$o[0].channel datarate 1e+08bps
attr mutable ""
attr unit bps
par Rede_Satelite_LEO.routerB.pppg$o[0].channel ber 0
attr mutable ""
par Rede_Satelite_LEO.routerB.pppg$o[0].channel per 5e-05
attr mutable ""
par Rede_Satelite_LEO.routerB.pppg$o[0].channel displayAsTooltip false
par Rede_Satelite_LEO.routerB.pppg$o[0].channel thruputDisplayFormat "\"\""
par Rede_Satelite_LEO.configurator typename "\"inet.networklayer.configurator.ipv4.Ipv4NetworkConfigurator\""
par Rede_Satelite_LEO.configurator minLinkWeight 0.001
par Rede_Satelite_LEO.configurator configureIsolatedNetworksSeparatly false
par Rede_Satelite_LEO.configurator config "<config>...</config> at content:1"
par Rede_Satelite_LEO.configurator assignAddresses true
par Rede_Satelite_LEO.configurator assignUniqueAddresses true
par Rede_Satelite_LEO.configurator assignDisjunctSubnetAddresses true
par Rede_Satelite_LEO.configurator addStaticRoutes true
par Rede_Satelite_LEO.configurator addDefaultRoutes true
par Rede_Satelite_LEO.configurator addSubnetRoutes true
par Rede_Satelite_LEO.configurator addDirectRoutes true
par Rede_Satelite_LEO.configurator optimizeRoutes true
par Rede_Satelite_LEO.configurator dumpTopology false
par Rede_Satelite_LEO.configurator dumpLinks false
par Rede_Satelite_LEO.configurator dumpAddresses false
par Rede_Satelite_LEO.configurator dumpRoutes false
par Rede_Satelite_LEO.configurator dumpConfig "\"\""
par Rede_Satelite_LEO.orgA.ethg$i[0].channel typename "\"ned.IdealChannel\""
par Rede_Satelite_LEO.orgA.eth[0].phys$o.channel typename "\"ned.IdealChannel\""
par Rede_Satelite_LEO.orgA.interfaceTable typename "\"inet.networklayer.common.InterfaceTable\""
par Rede_Satelite_LEO.orgA.interfaceTable displayAddresses false
par Rede_Satelite_LEO.orgA.cb typename "\"inet.common.MessageDispatcher\""
par Rede_Satelite_LEO.orgA.cb displayStringTextFormat "\"processed %p pk (%l)\""
par Rede_Satelite_LEO.orgA.cb forwardServiceRegistration true
par Rede_Satelite_LEO.orgA.cb forwardProtocolRegistration true
par Rede_Satelite_LEO.orgA.bl typename "\"inet.common.MessageDispatcher\""
par Rede_Satelite_LEO.orgA.bl displayStringTextFormat "\"processed %p pk (%l)\""
par Rede_Satelite_LEO.orgA.bl forwardServiceRegistration true
par Rede_Satelite_LEO.orgA.bl forwardProtocolRegistration true
par Rede_Satelite_LEO.orgA.ethernet typename "\"inet.linklayer.ethernet.basic.EthernetEncapsulation\""
par Rede_Satelite_LEO.orgA.ethernet registerProtocol true
par Rede_Satelite_LEO.orgA.ethernet interfaceTableModule "\"Rede_Satelite_LEO.orgA.interfaceTable\""
par Rede_Satelite_LEO.orgA.ethernet fcsMode "\"declared\""
attr enum declared,computed
par Rede_Satelite_LEO.orgA.ethernet stopOperationExtraTime -1s
attr unit s
par Rede_Satelite_LEO.orgA.ethernet stopOperationTimeout 2s
attr unit s
scalar Rede_Satelite_LEO.orgA.ethernet decapPk:count 57
attr interpolationmode none
attr recordingmode count
attr source decapPk
attr title "packets decapsulated, count"
scalar Rede_Satelite_LEO.orgA.ethernet decapPk:sum(packetBytes) 58958
attr interpolationmode none
attr recordingmode sum(packetBytes)
attr source decapPk
attr title "packets decapsulated, sum(packetBytes)"
scalar Rede_Satelite_LEO.orgA.ethernet encapPk:count 57
attr interpolationmode none
attr recordingmode count
attr source encapPk
attr title "packets encapsulated, count"
scalar Rede_Satelite_LEO.orgA.ethernet encapPk:sum(packetBytes) 58940
attr interpolationmode none
attr recordingmode sum(packetBytes)
attr source encapPk
attr title "packets encapsulated, sum(packetBytes)"
scalar Rede_Satelite_LEO.orgA.ethernet pauseSent:count 0
attr recordingmode count
attr title "pause sent, count"
scalar Rede_Satelite_LEO.orgA.ethernet pauseSent:sum 0
attr recordingmode sum
attr title "pause sent, sum"
par Rede_Satelite_LEO.orgA.li typename "\"inet.common.MessageDispatcher\""
par Rede_Satelite_LEO.orgA.li displayStringTextFormat "\"processed %p pk (%l)\""
par Rede_Satelite_LEO.orgA.li forwardServiceRegistration true
par Rede_Satelite_LEO.orgA.li forwardProtocolRegistration true
par Rede_Satelite_LEO.orgA.lo[0].upperLayerIn.channel typename "\"ned.IdealChannel\""
par Rede_Satelite_LEO.orgA.lo[0].lo.upperLayerOut.channel typename "\"ned.IdealChannel\""
par Rede_Satelite_LEO.orgA.lo[0].lo typename "\"inet.linklayer.loopback.Loopback\""
par Rede_Satelite_LEO.orgA.lo[0].lo interfaceTableModule "\"Rede_Satelite_LEO.orgA.interfaceTable\""
par Rede_Satelite_LEO.orgA.lo[0].lo mtu 4470B
attr unit B
scalar Rede_Satelite_LEO.orgA.lo[0].lo rcvdPkFromHl:count 0
attr interpolationmode none
attr recordingmode count
attr source packetReceivedFromUpper
attr title "packets received from higher layer, count"
scalar Rede_Satelite_LEO.orgA.lo[0].lo rcvdPkFromHl:sum(packetBytes) 0
attr interpolationmode none
attr recordingmode sum(packetBytes)
attr source packetReceivedFromUpper
attr title "packets received from higher layer, sum(packetBytes)"
scalar Rede_Satelite_LEO.orgA.lo[0].lo passedUpPk:count 0
attr interpolationmode none
attr recordingmode count
attr source packetSentToUpper
attr title "packets passed to higher layer, count"
scalar Rede_Satelite_LEO.orgA.lo[0].lo passedUpPk:sum(packetBytes) 0
attr interpolationmode none
attr recordingmode sum(packetBytes)
attr source packetSentToUpper
attr title "packets passed to higher layer, sum(packetBytes)"
par Rede_Satelite_LEO.orgA.lo[0] typename "\"inet.linklayer.loopback.LoopbackInterface\""
par Rede_Satelite_LEO.orgA.lo[0] displayStringTextFormat "\"%a (%i)\\n%m\""
par Rede_Satelite_LEO.orgA.lo[0] recordPcap false
par Rede_Satelite_LEO.orgA.lo[0] numPcapRecorders 0
par Rede_Satelite_LEO.orgA.lo[0] interfaceTableModule "\"Rede_Satelite_LEO.orgA.interfaceTable\""
scalar Rede_Satelite_LEO.orgA.lo[0] packetDropInterfaceDown:count 0
attr interpolationmode none
attr recordingmode count
attr source packetDropReasonIsInterfaceDown(packetDropped)
attr title "packet drops: interface down, count"
scalar Rede_Satelite_LEO.orgA.lo[0] packetDropInterfaceDown:sum(packetBytes) 0
attr interpolationmode none
attr recordingmode sum(packetBytes)
attr source packetDropReasonIsInterfaceDown(packetDropped)
attr title "packet drops: interface down, sum(packetBytes)"
scalar Rede_Satelite_LEO.orgA.lo[0] packetDropNoCarrier:count 0
attr interpolationmode none
attr recordingmode count
attr source packetDropReasonIsNoCarrier(packetDropped)
attr title "packet drops: no carrier, count"
scalar Rede_Satelite_LEO.orgA.lo[0] packetDropNoCarrier:sum(packetBytes) 0
attr interpolationmode none
attr recordingmode sum(packetBytes)
attr source packetDropReasonIsNoCarrier(packetDropped)
attr title "packet drops: no carrier, sum(packetBytes)"
par Rede_Satelite_LEO.orgA.eth[0].mac.phys$o.channel typename "\"ned.IdealChannel\""
par Rede_Satelite_LEO.orgA.eth[0].phys$i.channel typename "\"ned.IdealChannel\""
par Rede_Satelite_LEO.orgA.eth[0].upperLayerIn.channel typename "\"ned.IdealChannel\""
par Rede_Satelite_LEO.orgA.eth[0].mac.upperLayerOut.channel typename "\"ned.IdealChannel\""
par Rede_Satelite_LEO.orgA.eth[0].queue typename "\"inet.linklayer.ethernet.common.EthernetQueue\""
par Rede_Satelite_LEO.orgA.eth[0].queue displayStringTextFormat "\"contains %p pk (%l) pushed %u\\npulled %o removed %r dropped %d\""
par Rede_Satelite_LEO.orgA.eth[0].queue packetCapacity 1000
par Rede_Satelite_LEO.orgA.eth[0].queue dataCapacity -1b
attr unit b
par Rede_Satelite_LEO.orgA.eth[0].queue dropperClass "\"inet::queueing::PacketAtCollectionEndDropper\""
par Rede_Satelite_LEO.orgA.eth[0].queue comparatorClass "\"inet::EthernetFrameTypeComparator\""
par Rede_Satelite_LEO.orgA.eth[0].queue bufferModule "\"\""
scalar Rede_Satelite_LEO.orgA.eth[0].queue queueLength:last 0
attr autoWarmupFilter false
attr interpolationmode sample-hold
attr recordingmode last
attr source "warmup(atomic(constant0(packetPushEnded) + count(packetPushStarted) - count(packetPulled) - count(packetRemoved) - count(packetDropped)))"
attr title "queue length, last"
attr unit pk
scalar Rede_Satelite_LEO.orgA.eth[0].queue queueLength:max 0
attr autoWarmupFilter false
attr interpolationmode sample-hold
attr recordingmode max
attr source "warmup(atomic(constant0(packetPushEnded) + count(packetPushStarted) - count(packetPulled) - count(packetRemoved) - count(packetDropped)))"
attr title "queue length, max"
attr unit pk
scalar Rede_Satelite_LEO.orgA.eth[0].queue queueLength:timeavg 0
attr autoWarmupFilter false
attr interpolationmode sample-hold
attr recordingmode timeavg
attr source "warmup(atomic(constant0(packetPushEnded) + count(packetPushStarted) - count(packetPulled) - count(packetRemoved) - count(packetDropped)))"
attr title "queue length, timeavg"
attr unit pk
scalar Rede_Satelite_LEO.orgA.eth[0].queue queueBitLength:last 0
attr autoWarmupFilter false
attr interpolationmode sample-hold
attr recordingmode last
attr source "warmup(atomic(constant0(packetPushEnded) + sum(packetLength(packetPushStarted)) - sum(packetLength(packetPulled)) - sum(packetLength(packetRemoved)) - sum(packetLength(packetDropped))))"
attr title "queue bit length, last"
attr unit b
scalar Rede_Satelite_LEO.orgA.eth[0].queue queueBitLength:max 0
attr autoWarmupFilter false
attr interpolationmode sample-hold
attr recordingmode max
attr source "warmup(atomic(constant0(packetPushEnded) + sum(packetLength(packetPushStarted)) - sum(packetLength(packetPulled)) - sum(packetLength(packetRemoved)) - sum(packetLength(packetDropped))))"
attr title "queue bit length, max"
attr unit b
scalar Rede_Satelite_LEO.orgA.eth[0].queue queueBitLength:timeavg 0
attr autoWarmupFilter false
attr interpolationmode sample-hold
attr recordingmode timeavg
attr source "warmup(atomic(constant0(packetPushEnded) + sum(packetLength(packetPushStarted)) - sum(packetLength(packetPulled)) - sum(packetLength(packetRemoved)) - sum(packetLength(packetDropped))))"
attr title "queue bit length, timeavg"
attr unit b
statistic Rede_Satelite_LEO.orgA.eth[0].queue queueingTime:histogram
field count 57
field mean 0
field stddev 0
field min 0
field max 0
field sum 0
field sqrsum 0
attr interpolationmode none
attr recordingmode histogram
attr source queueingTime(packetPulled)
attr title "queueing times"
attr unit s
bin	-inf	0
bin	-0.5	0
bin	-0.48	0
bin	-0.46	0
bin	-0.44	0
bin	-0.42	0
bin	-0.4	0
bin	-0.38	0
bin	-0.36	0
bin	-0.34	0
bin	-0.32	0
bin	-0.3	0
bin	-0.28	0
bin	-0.26	0
bin	-0.24	0
bin	-0.22	0
bin	-0.2	0
bin	-0.18	0
bin	-0.16	0
bin	-0.14	0
bin	-0.12	0
bin	-0.1	0
bin	-0.08	0
bin	-0.06	0
bin	-0.04	0
bin	-0.02	0
bin	0	57
bin	0.02	0
bin	0.04	0
bin	0.06	0
bin	0.08	0
bin	0.1	0
bin	0.12	0
bin	0.14	0
bin	0.16	0
bin	0.18	0
bin	0.2	0
bin	0.22	0
bin	0.24	0
bin	0.26	0
bin	0.28	0
bin	0.3	0
bin	0.32	0
bin	0.34	0
bin	0.36	0
bin	0.38	0
bin	0.4	0
bin	0.42	0
bin	0.44	0
bin	0.46	0
bin	0.48	0
bin	0.5	0
scalar Rede_Satelite_LEO.orgA.eth[0].queue outgoingPackets:count 57
attr recordingmode count
attr source packetPulled
attr title "outgoing packets, count"
attr unit pk
scalar Rede_Satelite_LEO.orgA.eth[0].queue outgoingPacketLengths:sum 479728
attr interpolationmode none
attr recordingmode sum
attr source packetLength(packetPulled)
attr title "outgoing packet lengths, sum"
attr unit b
statistic Rede_Satelite_LEO.orgA.eth[0].queue outgoingPacketLengths:histogram
field count 57
field mean 8416.2807017544
field stddev 1085.0569069077
field min 368
field max 8560
field sum 479728
field sqrsum 4103457024
attr interpolationmode none
attr recordingmode histogram
attr source packetLength(packetPulled)
attr title "outgoing packet lengths"
attr unit b
bin	-inf	0
bin	0	0
bin	200	1
bin	400	0
bin	600	0
bin	800	0
bin	1000	0
bin	1200	0
bin	1400	0
bin	1600	0
bin	1800	0
bin	2000	0
bin	2200	0
bin	2400	0
bin	2600	0
bin	2800	0
bin	3000	0
bin	3200	0
bin	3400	0
bin	3600	0
bin	3800	0
bin	4000	0
bin	4200	0
bin	4400	0
bin	4600	0
bin	4800	0
bin	5000	0
bin	5200	0
bin	5400	0
bin	5600	0
bin	5800	0
bin	6000	0
bin	6200	0
bin	6400	0
bin	6600	0
bin	6800	0
bin	7000	0
bin	7200	0
bin	7400	0
bin	7600	0
bin	7800	0
bin	8000	0
bin	8200	0
bin	8400	56
bin	8600	0
bin	8800	0
bin	9000	0
bin	9200	0
bin	9400	0
bin	9600	0
bin	9800	0
bin	10000	0
bin	10200	0
bin	10400	0
bin	10600	0
bin	10800	0
statistic Rede_Satelite_LEO.orgA.eth[0].queue flowQueueingTime:histogram
field count 0
field mean -nan(ind)
field stddev nan
field min nan
field max nan
field sum 0
field sqrsum 0
attr interpolationmode none
attr recordingmode histogram
attr source queueingTime(demuxFlow(packetPulled))
attr title "flow queueing times"
attr unit s
bin	-inf	0
bin	0	0
bin	1	0
scalar Rede_Satelite_LEO.orgA.eth[0].queue incomingPackets:count 57
attr recordingmode count
attr source packetPushStarted
attr title "incoming packets, count"
attr unit pk
scalar Rede_Satelite_LEO.orgA.eth[0].queue incomingPacketLengths:sum 479728
attr interpolationmode none
attr recordingmode sum
attr source packetLength(packetPushStarted)
attr title "incoming packet lengths, sum"
attr unit b
statistic Rede_Satelite_LEO.orgA.eth[0].queue incomingPacketLengths:histogram
field count 57
field mean 8416.2807017544
field stddev 1085.0569069077
field min 368
field max 8560
field sum 479728
field sqrsum 4103457024
attr interpolationmode none
attr recordingmode histogram
attr source packetLength(packetPushStarted)
attr title "incoming packet lengths"
attr unit b
bin	-inf	0
bin	0	0
bin	200	1
bin	400	0
bin	600	0
bin	800	0
bin	1000	0
bin	1200	0
bin	1400	0
bin	1600	0
bin	1800	0
bin	2000	0
bin	2200	0
bin	2400	0
bin	2600	0
bin	2800	0
bin	3000	0
bin	3200	0
bin	3400	0
bin	3600	0
bin	3800	0
bin	4000	0
bin	4200	0
bin	4400	0
bin	4600	0
bin	4800	0
bin	5000	0
bin	5200	0
bin	5400	0
bin	5600	0
bin	5800	0
bin	6000	0
bin	6200	0
bin	6400	0
bin	6600	0
bin	6800	0
bin	7000	0
bin	7200	0
bin	7400	0
bin	7600	0
bin	7800	0
bin	8000	0
bin	8200	0
bin	8400	56
bin	8600	0
bin	8800	0
bin	9000	0
bin	9200	0
bin	9400	0
bin	9600	0
bin	9800	0
bin	10000	0
bin	10200	0
bin	10400	0
bin	10600	0
bin	10800	0
scalar Rede_Satelite_LEO.orgA.eth[0].queue droppedPacketsQueueOverflow:count 0
attr interpolationmode none
attr recordingmode count
attr source packetDropReasonIsQueueOverflow(packetDropped)
attr title "dropped packets: queue overflow, count"
attr unit pk
scalar Rede_Satelite_LEO.orgA.eth[0].queue droppedPacketLengthsQueueOverflow:sum 0
attr interpolationmode none
attr recordingmode sum
attr source packetLength(packetDropReasonIsQueueOverflow(packetDropped))
attr title "dropped packet lengths: queue overflow, sum"
attr unit b
par Rede_Satelite_LEO.orgA.eth[0].mac typename "\"inet.linklayer.ethernet.basic.EthernetMac\""
par Rede_Satelite_LEO.orgA.eth[0].mac interfaceTableModule "\"Rede_Satelite_LEO.orgA.interfaceTable\""
par Rede_Satelite_LEO.orgA.eth[0].mac displayStringTextFormat "\"rate: %b\\nsent: %s, rcvd: %r\\nqueue: %q, drop: %d\""
par Rede_Satelite_LEO.orgA.eth[0].mac sendRawBytes false
par Rede_Satelite_LEO.orgA.eth[0].mac promiscuous false
par Rede_Satelite_LEO.orgA.eth[0].mac duplexMode true
par Rede_Satelite_LEO.orgA.eth[0].mac mtu 1500B
attr unit B
par Rede_Satelite_LEO.orgA.eth[0].mac fcsMode "\"declared\""
attr enum declared,computed
par Rede_Satelite_LEO.orgA.eth[0].mac stopOperationExtraTime -1s
attr unit s
par Rede_Satelite_LEO.orgA.eth[0].mac stopOperationTimeout 2s
attr unit s
scalar Rede_Satelite_LEO.orgA.eth[0].mac "simulated time" 6.656462507217
scalar Rede_Satelite_LEO.orgA.eth[0].mac full-duplex 1
scalar Rede_Satelite_LEO.orgA.eth[0].mac "frames/sec sent" 8.563106896223
scalar Rede_Satelite_LEO.orgA.eth[0].mac "frames/sec rcvd" 8.563106896223
scalar Rede_Satelite_LEO.orgA.eth[0].mac "bits/sec sent" 72091.144429901
scalar Rede_Satelite_LEO.orgA.eth[0].mac "bits/sec rcvd" 72091.144429901
scalar Rede_Satelite_LEO.orgA.eth[0].mac "rx channel idle (%)" 99.927360816729
scalar Rede_Satelite_LEO.orgA.eth[0].mac "rx channel utilization (%)" 0.072639183271259
scalar Rede_Satelite_LEO.orgA.eth[0].mac txPk:count 57
attr interpolationmode none
attr recordingmode count
attr source packetSentToLower
attr title "packets transmitted, count"
scalar Rede_Satelite_LEO.orgA.eth[0].mac txPk:sum(packetBytes) 59984
attr interpolationmode none
attr recordingmode sum(packetBytes)
attr source packetSentToLower
attr title "packets transmitted, sum(packetBytes)"
scalar Rede_Satelite_LEO.orgA.eth[0].mac packetReceivedFromUpper:count 57
attr interpolationmode none
attr recordingmode count
attr source packetReceivedFromUpper
attr title "packet bytes from higher layer, count"
scalar Rede_Satelite_LEO.orgA.eth[0].mac packetReceivedFromUpper:sum(packetBytes) 59966
attr interpolationmode none
attr recordingmode sum(packetBytes)
attr source packetReceivedFromUpper
attr title "packet bytes from higher layer, sum(packetBytes)"
scalar Rede_Satelite_LEO.orgA.eth[0].mac passedUpPk:count 57
attr interpolationmode none
attr recordingmode count
attr source packetSentToUpper
attr title "packets passed to higher layer, count"
scalar Rede_Satelite_LEO.orgA.eth[0].mac passedUpPk:sum(packetBytes) 59984
attr interpolationmode none
attr recordingmode sum(packetBytes)
attr source packetSentToUpper
attr title "packets passed to higher layer, sum(packetBytes)"
scalar Rede_Satelite_LEO.orgA.eth[0].mac packetDropIncorrectlyReceived:count 0
attr interpolationmode none
attr recordingmode count
attr source packetDropReasonIsIncorrectlyReceived(packetDropped)
attr title "packet drop: incorrectly received, count"
scalar Rede_Satelite_LEO.orgA.eth[0].mac packetDropIncorrectlyReceived:sum(packetBytes) 0
attr interpolationmode none
attr recordingmode sum(packetBytes)
attr source packetDropReasonIsIncorrectlyReceived(packetDropped)
attr title "packet drop: incorrectly received, sum(packetBytes)"
scalar Rede_Satelite_LEO.orgA.eth[0].mac packetDropInterfaceDown:count 0
attr interpolationmode none
attr recordingmode count
attr source packetDropReasonIsInterfaceDown(packetDropped)
attr title "packet drop: interface down, count"
scalar Rede_Satelite_LEO.orgA.eth[0].mac packetDropInterfaceDown:sum(packetBytes) 0
attr interpolationmode none
attr recordingmode sum(packetBytes)
attr source packetDropReasonIsInterfaceDown(packetDropped)
attr title "packet drop: interface down, sum(packetBytes)"
scalar Rede_Satelite_LEO.orgA.eth[0].mac packetDropNotAddressedToUs:count 0
attr interpolationmode none
attr recordingmode count
attr source packetDropReasonIsNotAddressedToUs(packetDropped)
attr title "packet drop: not addressed to us, count"
scalar Rede_Satelite_LEO.orgA.eth[0].mac packetDropNotAddressedToUs:sum(packetBytes) 0
attr interpolationmode none
attr recordingmode sum(packetBytes)
attr source packetDropReasonIsNotAddressedToUs(packetDropped)
attr title "packet drop: not addressed to us, sum(packetBytes)"
scalar Rede_Satelite_LEO.orgA.eth[0].mac rxPausePkUnits:count 0
attr interpolationmode none
attr recordingmode count
attr title "pause units received, count"
scalar Rede_Satelite_LEO.orgA.eth[0].mac rxPausePkUnits:sum 0
attr interpolationmode none
attr recordingmode sum
attr title "pause units received, sum"
scalar Rede_Satelite_LEO.orgA.eth[0].mac txPausePkUnits:count 0
attr interpolationmode none
attr recordingmode count
attr title "pause units sent, count"
scalar Rede_Satelite_LEO.orgA.eth[0].mac txPausePkUnits:sum 0
attr interpolationmode none
attr recordingmode sum
attr title "pause units sent, sum"
scalar Rede_Satelite_LEO.orgA.eth[0].mac rxPkOk:count 57
attr interpolationmode none
attr recordingmode count
attr source rxPkOk
attr title "packets received OK, count"
scalar Rede_Satelite_LEO.orgA.eth[0].mac rxPkOk:sum(packetBytes) 59984
attr interpolationmode none
attr recordingmode sum(packetBytes)
attr source rxPkOk
attr title "packets received OK, sum(packetBytes)"
par Rede_Satelite_LEO.orgA.eth[0] typename "\"inet.linklayer.ethernet.EthernetInterface\""
par Rede_Satelite_LEO.orgA.eth[0] displayStringTextFormat "\"%a (%i)\\n%m\""
par Rede_Satelite_LEO.orgA.eth[0] recordPcap false
par Rede_Satelite_LEO.orgA.eth[0] numPcapRecorders 0
par Rede_Satelite_LEO.orgA.eth[0] interfaceTableModule "\"Rede_Satelite_LEO.orgA.interfaceTable\""
par Rede_Satelite_LEO.orgA.eth[0] protocol "\"ethernetmac\""
par Rede_Satelite_LEO.orgA.eth[0] address "\"0A-AA-00-00-00-01\""
attr mutable ""
par Rede_Satelite_LEO.orgA.eth[0] duplexMode true
par Rede_Satelite_LEO.orgA.eth[0] csmacdSupport false
par Rede_Satelite_LEO.orgA.eth[0] bitrate 0bps
attr unit bps
par Rede_Satelite_LEO.orgA.eth[0] fcsMode "\"declared\""
attr enum declared,computed
scalar Rede_Satelite_LEO.orgA.eth[0] packetDropInterfaceDown:count 0
attr interpolationmode none
attr recordingmode count
attr source packetDropReasonIsInterfaceDown(packetDropped)
attr title "packet drops: interface down, count"
scalar Rede_Satelite_LEO.orgA.eth[0] packetDropInterfaceDown:sum(packetBytes) 0
attr interpolationmode none
attr recordingmode sum(packetBytes)
attr source packetDropReasonIsInterfaceDown(packetDropped)
attr title "packet drops: interface down, sum(packetBytes)"
scalar Rede_Satelite_LEO.orgA.eth[0] packetDropNoCarrier:count 0
attr interpolationmode none
attr recordingmode count
attr source packetDropReasonIsNoCarrier(packetDropped)
attr title "packet drops: no carrier, count"
scalar Rede_Satelite_LEO.orgA.eth[0] packetDropNoCarrier:sum(packetBytes) 0
attr interpolationmode none
attr recordingmode sum(packetBytes)
attr source packetDropReasonIsNoCarrier(packetDropped)
attr title "packet drops: no carrier, sum(packetBytes)"
par Rede_Satelite_LEO.orgA.ipv4.transportIn.channel typename "\"ned.IdealChannel\""
par Rede_Satelite_LEO.orgA.ipv4.up.out[0].channel typename "\"ned.IdealChannel\""
par Rede_Satelite_LEO.orgA.ipv4.lp.out[2].channel typename "\"ned.IdealChannel\""
par Rede_Satelite_LEO.orgA.ipv4.ifIn.channel typename "\"ned.IdealChannel\""
par Rede_Satelite_LEO.orgA.ipv4.configurator typename "\"inet.networklayer.configurator.ipv4.Ipv4NodeConfigurator\""
par Rede_Satelite_LEO.orgA.ipv4.configurator interfaceTableModule "\"Rede_Satelite_LEO.orgA.interfaceTable\""
par Rede_Satelite_LEO.orgA.ipv4.configurator routingTableModule "\"Rede_Satelite_LEO.orgA.ipv4.routingTable\""
par Rede_Satelite_LEO.orgA.ipv4.configurator networkConfiguratorModule "\"configurator\""
par Rede_Satelite_LEO.orgA.ipv4.configurator configureRoutingTable true
par Rede_Satelite_LEO.orgA.ipv4.routingTable typename "\"inet.networklayer.ipv4.Ipv4RoutingTable\""
par Rede_Satelite_LEO.orgA.ipv4.routingTable interfaceTableModule "\"Rede_Satelite_LEO.orgA.interfaceTable\""
par Rede_Satelite_LEO.orgA.ipv4.routingTable routerId "\"auto\""
par Rede_Satelite_LEO.orgA.ipv4.routingTable netmaskRoutes "\"*\""
par Rede_Satelite_LEO.orgA.ipv4.routingTable forwarding false
par Rede_Satelite_LEO.orgA.ipv4.routingTable multicastForwarding false
par Rede_Satelite_LEO.orgA.ipv4.routingTable useAdminDist false
par Rede_Satelite_LEO.orgA.ipv4.routingTable routingFile "\"\""
par Rede_Satelite_LEO.orgA.ipv4.natTable typename "\"inet.networklayer.ipv4.Ipv4NatTable\""
par Rede_Satelite_LEO.orgA.ipv4.natTable networkProtocolModule "\"^.ip\""
par Rede_Satelite_LEO.orgA.ipv4.natTable config "<config/> at content:1"
par Rede_Satelite_LEO.orgA.ipv4.up typename "\"inet.common.MessageDispatcher\""
par Rede_Satelite_LEO.orgA.ipv4.up displayStringTextFormat "\"processed %p pk (%l)\""
par Rede_Satelite_LEO.orgA.ipv4.up forwardServiceRegistration true
par Rede_Satelite_LEO.orgA.ipv4.up forwardProtocolRegistration true
par Rede_Satelite_LEO.orgA.ipv4.igmp typename "\"inet.networklayer.ipv4.Igmpv2\""
par Rede_Satelite_LEO.orgA.ipv4.igmp interfaceTableModule "\"Rede_Satelite_LEO.orgA.interfaceTable\""
par Rede_Satelite_LEO.orgA.ipv4.igmp routingTableModule "\"Rede_Satelite_LEO.orgA.ipv4.routingTable\""
par Rede_Satelite_LEO.orgA.ipv4.igmp crcMode "\"declared\""
attr enum declared,computed
par Rede_Satelite_LEO.orgA.ipv4.igmp enabled true
par Rede_Satelite_LEO.orgA.ipv4.igmp robustnessVariable 2
par Rede_Satelite_LEO.orgA.ipv4.igmp queryInterval 125s
attr unit s
par Rede_Satelite_LEO.orgA.ipv4.igmp queryResponseInterval 10s
attr unit s
par Rede_Satelite_LEO.orgA.ipv4.igmp groupMembershipInterval 260s
attr unit s
par Rede_Satelite_LEO.orgA.ipv4.igmp otherQuerierPresentInterval 255s
attr unit s
par Rede_Satelite_LEO.orgA.ipv4.igmp startupQueryInterval 31.25s
attr unit s
par Rede_Satelite_LEO.orgA.ipv4.igmp startupQueryCount 2
par Rede_Satelite_LEO.orgA.ipv4.igmp lastMemberQueryInterval 1s
attr unit s
par Rede_Satelite_LEO.orgA.ipv4.igmp lastMemberQueryCount 2
par Rede_Satelite_LEO.orgA.ipv4.igmp unsolicitedReportInterval 10s
attr unit s
par Rede_Satelite_LEO.orgA.ipv4.icmp typename "\"inet.networklayer.ipv4.Icmp\""
par Rede_Satelite_LEO.orgA.ipv4.icmp interfaceTableModule "\"Rede_Satelite_LEO.orgA.interfaceTable\""
par Rede_Satelite_LEO.orgA.ipv4.icmp routingTableModule "\"Rede_Satelite_LEO.orgA.ipv4.routingTable\""
par Rede_Satelite_LEO.orgA.ipv4.icmp crcMode "\"declared\""
attr enum declared,computed
attr mutable ""
par Rede_Satelite_LEO.orgA.ipv4.icmp quoteLength 8B
attr mutable ""
attr unit B
par Rede_Satelite_LEO.orgA.ipv4.mp typename "\"inet.common.MessageDispatcher\""
par Rede_Satelite_LEO.orgA.ipv4.mp displayStringTextFormat "\"processed %p pk (%l)\""
par Rede_Satelite_LEO.orgA.ipv4.mp forwardServiceRegistration true
par Rede_Satelite_LEO.orgA.ipv4.mp forwardProtocolRegistration true
par Rede_Satelite_LEO.orgA.ipv4.ip typename "\"inet.networklayer.ipv4.Ipv4\""
par Rede_Satelite_LEO.orgA.ipv4.ip interfaceTableModule "\"Rede_Satelite_LEO.orgA.interfaceTable\""
par Rede_Satelite_LEO.orgA.ipv4.ip routingTableModule "\"Rede_Satelite_LEO.orgA.ipv4.routingTable\""
par Rede_Satelite_LEO.orgA.ipv4.ip arpModule "\"Rede_Satelite_LEO.orgA.ipv4.arp\""
par Rede_Satelite_LEO.orgA.ipv4.ip icmpModule "\"Rede_Satelite_LEO.orgA.ipv4.icmp\""
par Rede_Satelite_LEO.orgA.ipv4.ip crcMode "\"declared\""
attr enum declared,computed
par Rede_Satelite_LEO.orgA.ipv4.ip timeToLive 32
par Rede_Satelite_LEO.orgA.ipv4.ip multicastTimeToLive 32
par Rede_Satelite_LEO.orgA.ipv4.ip fragmentTimeout 60s
attr unit s
par Rede_Satelite_LEO.orgA.ipv4.ip limitedBroadcast false
par Rede_Satelite_LEO.orgA.ipv4.ip directBroadcastInterfaces "\"\""
scalar Rede_Satelite_LEO.orgA.ipv4.ip packetDropAddressResolutionFailed:count 0
attr interpolationmode none
attr recordingmode count
attr source packetDropReasonIsAddressResolutionFailed(packetDropped)
attr title "packet drop: address resolution failed, count"
scalar Rede_Satelite_LEO.orgA.ipv4.ip packetDropAddressResolutionFailed:sum(packetBytes) 0
attr interpolationmode none
attr recordingmode sum(packetBytes)
attr source packetDropReasonIsAddressResolutionFailed(packetDropped)
attr title "packet drop: address resolution failed, sum(packetBytes)"
scalar Rede_Satelite_LEO.orgA.ipv4.ip packetDropHopLimitReached:count 0
attr interpolationmode none
attr recordingmode count
attr source packetDropReasonIsHopLimitReached(packetDropped)
attr title "packet drop: hop limit reached, count"
scalar Rede_Satelite_LEO.orgA.ipv4.ip packetDropHopLimitReached:sum(packetBytes) 0
attr interpolationmode none
attr recordingmode sum(packetBytes)
attr source packetDropReasonIsHopLimitReached(packetDropped)
attr title "packet drop: hop limit reached, sum(packetBytes)"
scalar Rede_Satelite_LEO.orgA.ipv4.ip packetDropForwardingDisabled:count 0
attr interpolationmode none
attr recordingmode count
attr source packetDropReasonIsForwardingDisabled(packetDropped)
attr title "packet drop: forwarding disabled, count"
scalar Rede_Satelite_LEO.orgA.ipv4.ip packetDropForwardingDisabled:sum(packetBytes) 0
attr interpolationmode none
attr recordingmode sum(packetBytes)
attr source packetDropReasonIsForwardingDisabled(packetDropped)
attr title "packet drop: forwarding disabled, sum(packetBytes)"
scalar Rede_Satelite_LEO.orgA.ipv4.ip packetDropNoInterfaceFound:count 0
attr interpolationmode none
attr recordingmode count
attr source packetDropReasonIsNoInterfaceFound(packetDropped)
attr title "packet drop: no interface found, count"
scalar Rede_Satelite_LEO.orgA.ipv4.ip packetDropNoInterfaceFound:sum(packetBytes) 0
attr interpolationmode none
attr recordingmode sum(packetBytes)
attr source packetDropReasonIsNoInterfaceFound(packetDropped)
attr title "packet drop: no interface found, sum(packetBytes)"
scalar Rede_Satelite_LEO.orgA.ipv4.ip packetDropNoRouteFound:count 0
attr interpolationmode none
attr recordingmode count
attr source packetDropReasonIsNoRouteFound(packetDropped)
attr title "packet drop: no route found, count"
scalar Rede_Satelite_LEO.orgA.ipv4.ip packetDropNoRouteFound:sum(packetBytes) 0
attr interpolationmode none
attr recordingmode sum(packetBytes)
attr source packetDropReasonIsNoRouteFound(packetDropped)
attr title "packet drop: no route found, sum(packetBytes)"
scalar Rede_Satelite_LEO.orgA.ipv4.ip packetDropUndefined:count 0
attr interpolationmode none
attr recordingmode count
attr source packetDropReasonIsUndefined(packetDropped)
attr title "packet drop: undefined, count"
scalar Rede_Satelite_LEO.orgA.ipv4.ip packetDropUndefined:sum(packetBytes) 0
attr interpolationmode none
attr recordingmode sum(packetBytes)
attr source packetDropReasonIsUndefined(packetDropped)
attr title "packet drop: undefined, sum(packetBytes)"
par Rede_Satelite_LEO.orgA.ipv4.arp typename "\"inet.networklayer.arp.ipv4.Arp\""
par Rede_Satelite_LEO.orgA.ipv4.arp interfaceTableModule "\"Rede_Satelite_LEO.orgA.interfaceTable\""
par Rede_Satelite_LEO.orgA.ipv4.arp routingTableModule "\"Rede_Satelite_LEO.orgA.ipv4.routingTable\""
par Rede_Satelite_LEO.orgA.ipv4.arp retryTimeout 1s
attr unit s
par Rede_Satelite_LEO.orgA.ipv4.arp retryCount 3
par Rede_Satelite_LEO.orgA.ipv4.arp cacheTimeout 120s
attr unit s
par Rede_Satelite_LEO.orgA.ipv4.arp proxyArpInterfaces "\"\""
scalar Rede_Satelite_LEO.orgA.ipv4.arp arpReplySent:count 1
attr recordingmode count
attr source arpReplySent
attr title "ARP replies sent, count"
scalar Rede_Satelite_LEO.orgA.ipv4.arp arpReplySent:sum(packetBytes) 28
attr recordingmode sum(packetBytes)
attr source arpReplySent
attr title "ARP replies sent, sum(packetBytes)"
scalar Rede_Satelite_LEO.orgA.ipv4.arp arpRequestSent:count 0
attr recordingmode count
attr source arpRequestSent
attr title "ARP request sent, count"
scalar Rede_Satelite_LEO.orgA.ipv4.arp arpRequestSent:sum(packetBytes) 0
attr recordingmode sum(packetBytes)
attr source arpRequestSent
attr title "ARP request sent, sum(packetBytes)"
scalar Rede_Satelite_LEO.orgA.ipv4.arp arpResolutionFailed:count 0
attr recordingmode count
attr title "ARP failed resolutions, count"
scalar Rede_Satelite_LEO.orgA.ipv4.arp arpResolutionCompleted:count 1
attr recordingmode count
attr title "ARP completed resolutions, count"
scalar Rede_Satelite_LEO.orgA.ipv4.arp arpResolutionInitiated:count 0
attr recordingmode count
attr title "ARP initiated resolutions, count"
par Rede_Satelite_LEO.orgA.ipv4.lp typename "\"inet.common.MessageDispatcher\""
par Rede_Satelite_LEO.orgA.ipv4.lp displayStringTextFormat "\"processed %p pk (%l)\""
par Rede_Satelite_LEO.orgA.ipv4.lp forwardServiceRegistration true
par Rede_Satelite_LEO.orgA.ipv4.lp forwardProtocolRegistration true
par Rede_Satelite_LEO.orgA.ipv4 typename "\"inet.networklayer.ipv4.Ipv4NetworkLayer\""
par Rede_Satelite_LEO.orgA.ipv4 forwarding false
par Rede_Satelite_LEO.orgA.ipv4 multicastForwarding false
par Rede_Satelite_LEO.orgA.ipv4 interfaceTableModule "\"Rede_Satelite_LEO.orgA.interfaceTable\""
par Rede_Satelite_LEO.orgA.ipv4 displayStringTextFormat "\"%i\""
par Rede_Satelite_LEO.orgA.nl typename "\"inet.common.MessageDispatcher\""
par Rede_Satelite_LEO.orgA.nl displayStringTextFormat "\"processed %p pk (%l)\""
par Rede_Satelite_LEO.orgA.nl forwardServiceRegistration true
par Rede_Satelite_LEO.orgA.nl forwardProtocolRegistration true
par Rede_Satelite_LEO.orgA.udp typename "\"inet.transportlayer.udp.Udp\""
par Rede_Satelite_LEO.orgA.udp interfaceTableModule "\"Rede_Satelite_LEO.orgA.interfaceTable\""
par Rede_Satelite_LEO.orgA.udp icmpModule "\"^.ipv4.icmp\""
par Rede_Satelite_LEO.orgA.udp icmpv6Module "\"^.ipv6.icmpv6\""
par Rede_Satelite_LEO.orgA.udp crcMode "\"declared\""
attr enum disabled,declared,computed
par Rede_Satelite_LEO.orgA.udp defaultMulticastLoop true
scalar Rede_Satelite_LEO.orgA.udp packetReceived:count 56
attr interpolationmode none
attr recordingmode count
attr source packetReceived
attr title "packets received, count"
scalar Rede_Satelite_LEO.orgA.udp packetReceived:sum(packetBytes) 57792
attr interpolationmode none
attr recordingmode sum(packetBytes)
attr source packetReceived
attr title "packets received, sum(packetBytes)"
scalar Rede_Satelite_LEO.orgA.udp packetSent:count 56
attr interpolationmode none
attr recordingmode count
attr source packetSent
attr title "packets sent, count"
scalar Rede_Satelite_LEO.orgA.udp packetSent:sum(packetBytes) 57792
attr interpolationmode none
attr recordingmode sum(packetBytes)
attr source packetSent
attr title "packets sent, sum(packetBytes)"
scalar Rede_Satelite_LEO.orgA.udp passedUpPk:count 56
attr interpolationmode none
attr recordingmode count
attr source packetSentToUpper
attr title "packets passed up, count"
scalar Rede_Satelite_LEO.orgA.udp droppedPkWrongPort:count 0
attr interpolationmode none
attr recordingmode count
attr source packetDropReasonIsNoPortFound(packetDropped)
attr title "packets dropped (wrong port), count"
scalar Rede_Satelite_LEO.orgA.udp droppedPkBadChecksum:count 0
attr interpolationmode none
attr recordingmode count
attr source packetDropReasonIsIncorrectlyReceived(packetDropped)
attr title "packets dropped (checksum error), count"
par Rede_Satelite_LEO.orgA.tcp typename "\"inet.transportlayer.tcp.Tcp\""
par Rede_Satelite_LEO.orgA.tcp crcMode "\"declared\""
attr enum declared,computed
par Rede_Satelite_LEO.orgA.tcp advertisedWindow 7504
par Rede_Satelite_LEO.orgA.tcp delayedAcksEnabled false
par Rede_Satelite_LEO.orgA.tcp nagleEnabled true
par Rede_Satelite_LEO.orgA.tcp limitedTransmitEnabled false
par Rede_Satelite_LEO.orgA.tcp increasedIWEnabled false
par Rede_Satelite_LEO.orgA.tcp sackSupport false
par Rede_Satelite_LEO.orgA.tcp windowScalingSupport false
par Rede_Satelite_LEO.orgA.tcp windowScalingFactor -1
par Rede_Satelite_LEO.orgA.tcp timestampSupport false
par Rede_Satelite_LEO.orgA.tcp mss 536
par Rede_Satelite_LEO.orgA.tcp msl 120s
attr unit s
par Rede_Satelite_LEO.orgA.tcp tcpAlgorithmClass "\"TcpReno\""
par Rede_Satelite_LEO.orgA.tcp useDataNotification false
par Rede_Satelite_LEO.orgA.tcp dupthresh 3
par Rede_Satelite_LEO.orgA.tcp initialSsthresh 4294967295
par Rede_Satelite_LEO.orgA.tcp stopOperationExtraTime 0s
attr unit s
par Rede_Satelite_LEO.orgA.tcp stopOperationTimeout 2s
attr unit s
par Rede_Satelite_LEO.orgA.tcp ecnWillingness false
par Rede_Satelite_LEO.orgA.tcp dctcpGamma 0.0625
par Rede_Satelite_LEO.orgA.tn typename "\"inet.common.MessageDispatcher\""
par Rede_Satelite_LEO.orgA.tn displayStringTextFormat "\"processed %p pk (%l)\""
par Rede_Satelite_LEO.orgA.tn forwardServiceRegistration true
par Rede_Satelite_LEO.orgA.tn forwardProtocolRegistration true
par Rede_Satelite_LEO.orgA.app[0] typename "\"inet.applications.udpapp.UdpBasicApp\""
par Rede_Satelite_LEO.orgA.app[0] interfaceTableModule "\"Rede_Satelite_LEO.orgA.interfaceTable\""
par Rede_Satelite_LEO.orgA.app[0] clockModule "\"\""
par Rede_Satelite_LEO.orgA.app[0] localPort -1
par Rede_Satelite_LEO.orgA.app[0] destAddresses "\"orgB\""
par Rede_Satelite_LEO.orgA.app[0] localAddress "\"\""
par Rede_Satelite_LEO.orgA.app[0] packetName "\"UdpBasicAppData\""
par Rede_Satelite_LEO.orgA.app[0] destPort 5000
par Rede_Satelite_LEO.orgA.app[0] messageLength 1024B
attr unit B
par Rede_Satelite_LEO.orgA.app[0] startTime 1.1s
attr unit s
par Rede_Satelite_LEO.orgA.app[0] stopTime -1s
attr unit s
par Rede_Satelite_LEO.orgA.app[0] sendInterval 0.1s
attr unit s
par Rede_Satelite_LEO.orgA.app[0] timeToLive -1
par Rede_Satelite_LEO.orgA.app[0] dontFragment false
par Rede_Satelite_LEO.orgA.app[0] dscp -1
par Rede_Satelite_LEO.orgA.app[0] tos -1
par Rede_Satelite_LEO.orgA.app[0] multicastInterface "\"\""
par Rede_Satelite_LEO.orgA.app[0] receiveBroadcast false
par Rede_Satelite_LEO.orgA.app[0] joinLocalMulticastGroups false
par Rede_Satelite_LEO.orgA.app[0] stopOperationExtraTime -1s
attr unit s
par Rede_Satelite_LEO.orgA.app[0] stopOperationTimeout 2s
attr unit s
scalar Rede_Satelite_LEO.orgA.app[0] "packets sent" 56
scalar Rede_Satelite_LEO.orgA.app[0] "packets received" 0
scalar Rede_Satelite_LEO.orgA.app[0] packetReceived:count 0
attr interpolationmode none
attr recordingmode count
attr source packetReceived
attr title "packets received, count"
scalar Rede_Satelite_LEO.orgA.app[0] packetReceived:sum(packetBytes) 0
attr interpolationmode none
attr recordingmode sum(packetBytes)
attr source packetReceived
attr title "packets received, sum(packetBytes)"
statistic Rede_Satelite_LEO.orgA.app[0] rcvdPkLifetime:stats
field count 0
field mean -nan(ind)
field stddev nan
field min nan
field max nan
field sum 0
field sqrsum 0
attr interpolationmode none
attr recordingmode stats
attr source dataAge(packetReceived)
attr title "received packet lifetime"
attr unit s
scalar Rede_Satelite_LEO.orgA.app[0] packetSent:count 56
attr interpolationmode none
attr recordingmode count
attr source packetSent
attr title "packets sent, count"
scalar Rede_Satelite_LEO.orgA.app[0] packetSent:sum(packetBytes) 57344
attr interpolationmode none
attr recordingmode sum(packetBytes)
attr source packetSent
attr title "packets sent, sum(packetBytes)"
par Rede_Satelite_LEO.orgA.app[1] typename "\"inet.applications.udpapp.UdpSink\""
par Rede_Satelite_LEO.orgA.app[1] interfaceTableModule "\"Rede_Satelite_LEO.orgA.interfaceTable\""
par Rede_Satelite_LEO.orgA.app[1] startTime 0s
attr unit s
par Rede_Satelite_LEO.orgA.app[1] stopTime -1s
attr unit s
par Rede_Satelite_LEO.orgA.app[1] localPort 6000
par Rede_Satelite_LEO.orgA.app[1] receiveBroadcast false
par Rede_Satelite_LEO.orgA.app[1] multicastGroup "\"\""
par Rede_Satelite_LEO.orgA.app[1] multicastSources "\"\""
par Rede_Satelite_LEO.orgA.app[1] stopOperationExtraTime -1s
attr unit s
par Rede_Satelite_LEO.orgA.app[1] stopOperationTimeout 2s
attr unit s
scalar Rede_Satelite_LEO.orgA.app[1] packetReceived:count 56
attr interpolationmode none
attr recordingmode count
attr source packetReceived
attr title "packets received, count"
scalar Rede_Satelite_LEO.orgA.app[1] packetReceived:sum(packetBytes) 57344
attr interpolationmode none
attr recordingmode sum(packetBytes)
attr source packetReceived
attr title "packets received, sum(packetBytes)"
statistic Rede_Satelite_LEO.orgA.app[1] endToEndDelay:histogram
field count 56
field mean 0.060602031629
field stddev 0.00053760133332013
field min 0.060530191629
field max 0.064553231629
field sum 3.393713771224
field sqrsum 0.20568184513914
attr interpolationmode none
attr recordingmode histogram
attr source dataAge(packetReceived)
attr title "end-to-end delay"
attr unit s
bin	-inf	0
bin	0.0595	0
bin	0.0596	0
bin	0.0597	0
bin	0.0598	0
bin	0.0599	0
bin	0.06	0
bin	0.0601	0
bin	0.0602	0
bin	0.0603	0
bin	0.0604	0
bin	0.0605	55
bin	0.0606	0
bin	0.0607	0
bin	0.0608	0
bin	0.0609	0
bin	0.061	0
bin	0.0611	0
bin	0.0612	0
bin	0.0613	0
bin	0.0614	0
bin	0.0615	0
bin	0.0616	0
bin	0.0617	0
bin	0.0618	0
bin	0.0619	0
bin	0.062	0
bin	0.0621	0
bin	0.0622	0
bin	0.0623	0
bin	0.0624	0
bin	0.0625	0
bin	0.0626	0
bin	0.0627	0
bin	0.0628	0
bin	0.0629	0
bin	0.063	0
bin	0.0631	0
bin	0.0632	0
bin	0.0633	0
bin	0.0634	0
bin	0.0635	0
bin	0.0636	0
bin	0.0637	0
bin	0.0638	0
bin	0.0639	0
bin	0.064	0
bin	0.0641	0
bin	0.0642	0
bin	0.0643	0
bin	0.0644	0
bin	0.0645	1
bin	0.0646	0
bin	0.0647	0
bin	0.0648	0
bin	0.0649	0
bin	0.065	0
bin	0.0651	0
bin	0.0652	0
bin	0.0653	0
bin	0.0654	0
bin	0.0655	0
bin	0.0656	0
par Rede_Satelite_LEO.orgA.at typename "\"inet.common.MessageDispatcher\""
par Rede_Satelite_LEO.orgA.at displayStringTextFormat "\"processed %p pk (%l)\""
par Rede_Satelite_LEO.orgA.at forwardServiceRegistration true
par Rede_Satelite_LEO.orgA.at forwardProtocolRegistration true
par Rede_Satelite_LEO.orgA typename "\"inet.node.inet.StandardHost\""
par Rede_Satelite_LEO.orgA hasStatus false
par Rede_Satelite_LEO.orgA osgModel "\"\""
par Rede_Satelite_LEO.orgA osgModelColor "\"\""
par Rede_Satelite_LEO.orgA canvasImage "\"\""
par Rede_Satelite_LEO.orgA canvasImageColor "\"\""
par Rede_Satelite_LEO.orgA recordPcap false
par Rede_Satelite_LEO.orgA numPcapRecorders 0
par Rede_Satelite_LEO.orgA numLoInterfaces 1
par Rede_Satelite_LEO.orgA numWlanInterfaces 0
par Rede_Satelite_LEO.orgA numEthInterfaces 0
par Rede_Satelite_LEO.orgA numPppInterfaces 0
par Rede_Satelite_LEO.orgA numTunInterfaces 0
par Rede_Satelite_LEO.orgA numVirtInterfaces 0
par Rede_Satelite_LEO.orgA fcsMode "\"declared\""
attr enum declared,computed
par Rede_Satelite_LEO.orgA hasIpv4 true
par Rede_Satelite_LEO.orgA hasIpv6 false
par Rede_Satelite_LEO.orgA hasGn false
par Rede_Satelite_LEO.orgA forwarding false
par Rede_Satelite_LEO.orgA multicastForwarding false
par Rede_Satelite_LEO.orgA hasUdp true
par Rede_Satelite_LEO.orgA hasTcp true
par Rede_Satelite_LEO.orgA hasSctp false
par Rede_Satelite_LEO.orgA numApps 2
par Rede_Satelite_LEO.orgB.ethg$i[0].channel typename "\"ned.IdealChannel\""
par Rede_Satelite_LEO.orgB.eth[0].phys$o.channel typename "\"ned.IdealChannel\""
par Rede_Satelite_LEO.orgB.interfaceTable typename "\"inet.networklayer.common.InterfaceTable\""
par Rede_Satelite_LEO.orgB.interfaceTable displayAddresses false
par Rede_Satelite_LEO.orgB.cb typename "\"inet.common.MessageDispatcher\""
par Rede_Satelite_LEO.orgB.cb displayStringTextFormat "\"processed %p pk (%l)\""
par Rede_Satelite_LEO.orgB.cb forwardServiceRegistration true
par Rede_Satelite_LEO.orgB.cb forwardProtocolRegistration true
par Rede_Satelite_LEO.orgB.bl typename "\"inet.common.MessageDispatcher\""
par Rede_Satelite_LEO.orgB.bl displayStringTextFormat "\"processed %p pk (%l)\""
par Rede_Satelite_LEO.orgB.bl forwardServiceRegistration true
par Rede_Satelite_LEO.orgB.bl forwardProtocolRegistration true
par Rede_Satelite_LEO.orgB.ethernet typename "\"inet.linklayer.ethernet.basic.EthernetEncapsulation\""
par Rede_Satelite_LEO.orgB.ethernet registerProtocol true
par Rede_Satelite_LEO.orgB.ethernet interfaceTableModule "\"Rede_Satelite_LEO.orgB.interfaceTable\""
par Rede_Satelite_LEO.orgB.ethernet fcsMode "\"declared\""
attr enum declared,computed
par Rede_Satelite_LEO.orgB.ethernet stopOperationExtraTime -1s
attr unit s
par Rede_Satelite_LEO.orgB.ethernet stopOperationTimeout 2s
attr unit s
scalar Rede_Satelite_LEO.orgB.ethernet decapPk:count 56
attr interpolationmode none
attr recordingmode count
attr source decapPk
attr title "packets decapsulated, count"
scalar Rede_Satelite_LEO.orgB.ethernet decapPk:sum(packetBytes) 57906
attr interpolationmode none
attr recordingmode sum(packetBytes)
attr source decapPk
attr title "packets decapsulated, sum(packetBytes)"
scalar Rede_Satelite_LEO.orgB.ethernet encapPk:count 58
attr interpolationmode none
attr recordingmode count
attr source encapPk
attr title "packets encapsulated, count"
scalar Rede_Satelite_LEO.orgB.ethernet encapPk:sum(packetBytes) 59992
attr interpolationmode none
attr recordingmode sum(packetBytes)
attr source encapPk
attr title "packets encapsulated, sum(packetBytes)"
scalar Rede_Satelite_LEO.orgB.ethernet pauseSent:count 0
attr recordingmode count
attr title "pause sent, count"
scalar Rede_Satelite_LEO.orgB.ethernet pauseSent:sum 0
attr recordingmode sum
attr title "pause sent, sum"
par Rede_Satelite_LEO.orgB.li typename "\"inet.common.MessageDispatcher\""
par Rede_Satelite_LEO.orgB.li displayStringTextFormat "\"processed %p pk (%l)\""
par Rede_Satelite_LEO.orgB.li forwardServiceRegistration true
par Rede_Satelite_LEO.orgB.li forwardProtocolRegistration true
par Rede_Satelite_LEO.orgB.lo[0].upperLayerIn.channel typename "\"ned.IdealChannel\""
par Rede_Satelite_LEO.orgB.lo[0].lo.upperLayerOut.channel typename "\"ned.IdealChannel\""
par Rede_Satelite_LEO.orgB.lo[0].lo typename "\"inet.linklayer.loopback.Loopback\""
par Rede_Satelite_LEO.orgB.lo[0].lo interfaceTableModule "\"Rede_Satelite_LEO.orgB.interfaceTable\""
par Rede_Satelite_LEO.orgB.lo[0].lo mtu 4470B
attr unit B
scalar Rede_Satelite_LEO.orgB.lo[0].lo rcvdPkFromHl:count 0
attr interpolationmode none
attr recordingmode count
attr source packetReceivedFromUpper
attr title "packets received from higher layer, count"
scalar Rede_Satelite_LEO.orgB.lo[0].lo rcvdPkFromHl:sum(packetBytes) 0
attr interpolationmode none
attr recordingmode sum(packetBytes)
attr source packetReceivedFromUpper
attr title "packets received from higher layer, sum(packetBytes)"
scalar Rede_Satelite_LEO.orgB.lo[0].lo passedUpPk:count 0
attr interpolationmode none
attr recordingmode count
attr source packetSentToUpper
attr title "packets passed to higher layer, count"
scalar Rede_Satelite_LEO.orgB.lo[0].lo passedUpPk:sum(packetBytes) 0
attr interpolationmode none
attr recordingmode sum(packetBytes)
attr source packetSentToUpper
attr title "packets passed to higher layer, sum(packetBytes)"
par Rede_Satelite_LEO.orgB.lo[0] typename "\"inet.linklayer.loopback.LoopbackInterface\""
par Rede_Satelite_LEO.orgB.lo[0] displayStringTextFormat "\"%a (%i)\\n%m\""
par Rede_Satelite_LEO.orgB.lo[0] recordPcap false
par Rede_Satelite_LEO.orgB.lo[0] numPcapRecorders 0
par Rede_Satelite_LEO.orgB.lo[0] interfaceTableModule "\"Rede_Satelite_LEO.orgB.interfaceTable\""
scalar Rede_Satelite_LEO.orgB.lo[0] packetDropInterfaceDown:count 0
attr interpolationmode none
attr recordingmode count
attr source packetDropReasonIsInterfaceDown(packetDropped)
attr title "packet drops: interface down, count"
scalar Rede_Satelite_LEO.orgB.lo[0] packetDropInterfaceDown:sum(packetBytes) 0
attr interpolationmode none
attr recordingmode sum(packetBytes)
attr source packetDropReasonIsInterfaceDown(packetDropped)
attr title "packet drops: interface down, sum(packetBytes)"
scalar Rede_Satelite_LEO.orgB.lo[0] packetDropNoCarrier:count 0
attr interpolationmode none
attr recordingmode count
attr source packetDropReasonIsNoCarrier(packetDropped)
attr title "packet drops: no carrier, count"
scalar Rede_Satelite_LEO.orgB.lo[0] packetDropNoCarrier:sum(packetBytes) 0
attr interpolationmode none
attr recordingmode sum(packetBytes)
attr source packetDropReasonIsNoCarrier(packetDropped)
attr title "packet drops: no carrier, sum(packetBytes)"
par Rede_Satelite_LEO.orgB.eth[0].mac.phys$o.channel typename "\"ned.IdealChannel\""
par Rede_Satelite_LEO.orgB.eth[0].phys$i.channel typename "\"ned.IdealChannel\""
par Rede_Satelite_LEO.orgB.eth[0].upperLayerIn.channel typename "\"ned.IdealChannel\""
par Rede_Satelite_LEO.orgB.eth[0].mac.upperLayerOut.channel typename "\"ned.IdealChannel\""
par Rede_Satelite_LEO.orgB.eth[0].queue typename "\"inet.linklayer.ethernet.common.EthernetQueue\""
par Rede_Satelite_LEO.orgB.eth[0].queue displayStringTextFormat "\"contains %p pk (%l) pushed %u\\npulled %o removed %r dropped %d\""
par Rede_Satelite_LEO.orgB.eth[0].queue packetCapacity 1000
par Rede_Satelite_LEO.orgB.eth[0].queue dataCapacity -1b
attr unit b
par Rede_Satelite_LEO.orgB.eth[0].queue dropperClass "\"inet::queueing::PacketAtCollectionEndDropper\""
par Rede_Satelite_LEO.orgB.eth[0].queue comparatorClass "\"inet::EthernetFrameTypeComparator\""
par Rede_Satelite_LEO.orgB.eth[0].queue bufferModule "\"\""
scalar Rede_Satelite_LEO.orgB.eth[0].queue queueLength:last 0
attr autoWarmupFilter false
attr interpolationmode sample-hold
attr recordingmode last
attr source "warmup(atomic(constant0(packetPushEnded) + count(packetPushStarted) - count(packetPulled) - count(packetRemoved) - count(packetDropped)))"
attr title "queue length, last"
attr unit pk
scalar Rede_Satelite_LEO.orgB.eth[0].queue queueLength:max 0
attr autoWarmupFilter false
attr interpolationmode sample-hold
attr recordingmode max
attr source "warmup(atomic(constant0(packetPushEnded) + count(packetPushStarted) - count(packetPulled) - count(packetRemoved) - count(packetDropped)))"
attr title "queue length, max"
attr unit pk
scalar Rede_Satelite_LEO.orgB.eth[0].queue queueLength:timeavg 0
attr autoWarmupFilter false
attr interpolationmode sample-hold
attr recordingmode timeavg
attr source "warmup(atomic(constant0(packetPushEnded) + count(packetPushStarted) - count(packetPulled) - count(packetRemoved) - count(packetDropped)))"
attr title "queue length, timeavg"
attr unit pk
scalar Rede_Satelite_LEO.orgB.eth[0].queue queueBitLength:last 0
attr autoWarmupFilter false
attr interpolationmode sample-hold
attr recordingmode last
attr source "warmup(atomic(constant0(packetPushEnded) + sum(packetLength(packetPushStarted)) - sum(packetLength(packetPulled)) - sum(packetLength(packetRemoved)) - sum(packetLength(packetDropped))))"
attr title "queue bit length, last"
attr unit b
scalar Rede_Satelite_LEO.orgB.eth[0].queue queueBitLength:max 0
attr autoWarmupFilter false
attr interpolationmode sample-hold
attr recordingmode max
attr source "warmup(atomic(constant0(packetPushEnded) + sum(packetLength(packetPushStarted)) - sum(packetLength(packetPulled)) - sum(packetLength(packetRemoved)) - sum(packetLength(packetDropped))))"
attr title "queue bit length, max"
attr unit b
scalar Rede_Satelite_LEO.orgB.eth[0].queue queueBitLength:timeavg 0
attr autoWarmupFilter false
attr interpolationmode sample-hold
attr recordingmode timeavg
attr source "warmup(atomic(constant0(packetPushEnded) + sum(packetLength(packetPushStarted)) - sum(packetLength(packetPulled)) - sum(packetLength(packetRemoved)) - sum(packetLength(packetDropped))))"
attr title "queue bit length, timeavg"
attr unit b
statistic Rede_Satelite_LEO.orgB.eth[0].queue queueingTime:histogram
field count 58
field mean 0
field stddev 0
field min 0
field max 0
field sum 0
field sqrsum 0
attr interpolationmode none
attr recordingmode histogram
attr source queueingTime(packetPulled)
attr title "queueing times"
attr unit s
bin	-inf	0
bin	-0.5	0
bin	-0.48	0
bin	-0.46	0
bin	-0.44	0
bin	-0.42	0
bin	-0.4	0
bin	-0.38	0
bin	-0.36	0
bin	-0.34	0
bin	-0.32	0
bin	-0.3	0
bin	-0.28	0
bin	-0.26	0
bin	-0.24	0
bin	-0.22	0
bin	-0.2	0
bin	-0.18	0
bin	-0.16	0
bin	-0.14	0
bin	-0.12	0
bin	-0.1	0
bin	-0.08	0
bin	-0.06	0
bin	-0.04	0
bin	-0.02	0
bin	0	58
bin	0.02	0
bin	0.04	0
bin	0.06	0
bin	0.08	0
bin	0.1	0
bin	0.12	0
bin	0.14	0
bin	0.16	0
bin	0.18	0
bin	0.2	0
bin	0.22	0
bin	0.24	0
bin	0.26	0
bin	0.28	0
bin	0.3	0
bin	0.32	0
bin	0.34	0
bin	0.36	0
bin	0.38	0
bin	0.4	0
bin	0.42	0
bin	0.44	0
bin	0.46	0
bin	0.48	0
bin	0.5	0
scalar Rede_Satelite_LEO.orgB.eth[0].queue outgoingPackets:count 58
attr recordingmode count
attr source packetPulled
attr title "outgoing packets, count"
attr unit pk
scalar Rede_Satelite_LEO.orgB.eth[0].queue outgoingPacketLengths:sum 488288
attr interpolationmode none
attr recordingmode sum
attr source packetLength(packetPulled)
attr title "outgoing packet lengths, sum"
attr unit b
statistic Rede_Satelite_LEO.orgB.eth[0].queue outgoingPacketLengths:histogram
field count 58
field mean 8418.7586206897
field stddev 1075.6622979868
field min 368
field max 8560
field sum 488288
field sqrsum 4176730624
attr interpolationmode none
attr recordingmode histogram
attr source packetLength(packetPulled)
attr title "outgoing packet lengths"
attr unit b
bin	-inf	0
bin	0	0
bin	200	1
bin	400	0
bin	600	0
bin	800	0
bin	1000	0
bin	1200	0
bin	1400	0
bin	1600	0
bin	1800	0
bin	2000	0
bin	2200	0
bin	2400	0
bin	2600	0
bin	2800	0
bin	3000	0
bin	3200	0
bin	3400	0
bin	3600	0
bin	3800	0
bin	4000	0
bin	4200	0
bin	4400	0
bin	4600	0
bin	4800	0
bin	5000	0
bin	5200	0
bin	5400	0
bin	5600	0
bin	5800	0
bin	6000	0
bin	6200	0
bin	6400	0
bin	6600	0
bin	6800	0
bin	7000	0
bin	7200	0
bin	7400	0
bin	7600	0
bin	7800	0
bin	8000	0
bin	8200	0
bin	8400	57
bin	8600	0
bin	8800	0
bin	9000	0
bin	9200	0
bin	9400	0
bin	9600	0
bin	9800	0
bin	10000	0
bin	10200	0
bin	10400	0
bin	10600	0
bin	10800	0
statistic Rede_Satelite_LEO.orgB.eth[0].queue flowQueueingTime:histogram
field count 0
field mean -nan(ind)
field stddev nan
field min nan
field max nan
field sum 0
field sqrsum 0
attr interpolationmode none
attr recordingmode histogram
attr source queueingTime(demuxFlow(packetPulled))
attr title "flow queueing times"
attr unit s
bin	-inf	0
bin	0	0
bin	1	0
scalar Rede_Satelite_LEO.orgB.eth[0].queue incomingPackets:count 58
attr recordingmode count
attr source packetPushStarted
attr title "incoming packets, count"
attr unit pk
scalar Rede_Satelite_LEO.orgB.eth[0].queue incomingPacketLengths:sum 488288
attr interpolationmode none
attr recordingmode sum
attr source packetLength(packetPushStarted)
attr title "incoming packet lengths, sum"
attr unit b
statistic Rede_Satelite_LEO.orgB.eth[0].queue incomingPacketLengths:histogram
field count 58
field mean 8418.7586206897
field stddev 1075.6622979868
field min 368
field max 8560
field sum 488288
field sqrsum 4176730624
attr interpolationmode none
attr recordingmode histogram
attr source packetLength(packetPushStarted)
attr title "incoming packet lengths"
attr unit b
bin	-inf	0
bin	0	0
bin	200	1
bin	400	0
bin	600	0
bin	800	0
bin	1000	0
bin	1200	0
bin	1400	0
bin	1600	0
bin	1800	0
bin	2000	0
bin	2200	0
bin	2400	0
bin	2600	0
bin	2800	0
bin	3000	0
bin	3200	0
bin	3400	0
bin	3600	0
bin	3800	0
bin	4000	0
bin	4200	0
bin	4400	0
bin	4600	0
bin	4800	0
bin	5000	0
bin	5200	0
bin	5400	0
bin	5600	0
bin	5800	0
bin	6000	0
bin	6200	0
bin	6400	0
bin	6600	0
bin	6800	0
bin	7000	0
bin	7200	0
bin	7400	0
bin	7600	0
bin	7800	0
bin	8000	0
bin	8200	0
bin	8400	57
bin	8600	0
bin	8800	0
bin	9000	0
bin	9200	0
bin	9400	0
bin	9600	0
bin	9800	0
bin	10000	0
bin	10200	0
bin	10400	0
bin	10600	0
bin	10800	0
scalar Rede_Satelite_LEO.orgB.eth[0].queue droppedPacketsQueueOverflow:count 0
attr interpolationmode none
attr recordingmode count
attr source packetDropReasonIsQueueOverflow(packetDropped)
attr title "dropped packets: queue overflow, count"
attr unit pk
scalar Rede_Satelite_LEO.orgB.eth[0].queue droppedPacketLengthsQueueOverflow:sum 0
attr interpolationmode none
attr recordingmode sum
attr source packetLength(packetDropReasonIsQueueOverflow(packetDropped))
attr title "dropped packet lengths: queue overflow, sum"
attr unit b
par Rede_Satelite_LEO.orgB.eth[0].mac typename "\"inet.linklayer.ethernet.basic.EthernetMac\""
par Rede_Satelite_LEO.orgB.eth[0].mac interfaceTableModule "\"Rede_Satelite_LEO.orgB.interfaceTable\""
par Rede_Satelite_LEO.orgB.eth[0].mac displayStringTextFormat "\"rate: %b\\nsent: %s, rcvd: %r\\nqueue: %q, drop: %d\""
par Rede_Satelite_LEO.orgB.eth[0].mac sendRawBytes false
par Rede_Satelite_LEO.orgB.eth[0].mac promiscuous false
par Rede_Satelite_LEO.orgB.eth[0].mac duplexMode true
par Rede_Satelite_LEO.orgB.eth[0].mac mtu 1500B
attr unit B
par Rede_Satelite_LEO.orgB.eth[0].mac fcsMode "\"declared\""
attr enum declared,computed
par Rede_Satelite_LEO.orgB.eth[0].mac stopOperationExtraTime -1s
attr unit s
par Rede_Satelite_LEO.orgB.eth[0].mac stopOperationTimeout 2s
attr unit s
scalar Rede_Satelite_LEO.orgB.eth[0].mac "simulated time" 6.656462507217
scalar Rede_Satelite_LEO.orgB.eth[0].mac full-duplex 1
scalar Rede_Satelite_LEO.orgB.eth[0].mac "frames/sec sent" 8.7133368417708
scalar Rede_Satelite_LEO.orgB.eth[0].mac "frames/sec rcvd" 8.4128769506753
scalar Rede_Satelite_LEO.orgB.eth[0].mac "bits/sec sent" 73377.11276379
scalar Rede_Satelite_LEO.orgB.eth[0].mac "bits/sec rcvd" 70805.176096012
scalar Rede_Satelite_LEO.orgB.eth[0].mac "rx channel idle (%)" 99.928656399779
scalar Rede_Satelite_LEO.orgB.eth[0].mac "rx channel utilization (%)" 0.071343600220855
scalar Rede_Satelite_LEO.orgB.eth[0].mac txPk:count 58
attr interpolationmode none
attr recordingmode count
attr source packetSentToLower
attr title "packets transmitted, count"
scalar Rede_Satelite_LEO.orgB.eth[0].mac txPk:sum(packetBytes) 61054
attr interpolationmode none
attr recordingmode sum(packetBytes)
attr source packetSentToLower
attr title "packets transmitted, sum(packetBytes)"
scalar Rede_Satelite_LEO.orgB.eth[0].mac packetReceivedFromUpper:count 58
attr interpolationmode none
attr recordingmode count
attr source packetReceivedFromUpper
attr title "packet bytes from higher layer, count"
scalar Rede_Satelite_LEO.orgB.eth[0].mac packetReceivedFromUpper:sum(packetBytes) 61036
attr interpolationmode none
attr recordingmode sum(packetBytes)
attr source packetReceivedFromUpper
attr title "packet bytes from higher layer, sum(packetBytes)"
scalar Rede_Satelite_LEO.orgB.eth[0].mac passedUpPk:count 56
attr interpolationmode none
attr recordingmode count
attr source packetSentToUpper
attr title "packets passed to higher layer, count"
scalar Rede_Satelite_LEO.orgB.eth[0].mac passedUpPk:sum(packetBytes) 58914
attr interpolationmode none
attr recordingmode sum(packetBytes)
attr source packetSentToUpper
attr title "packets passed to higher layer, sum(packetBytes)"
scalar Rede_Satelite_LEO.orgB.eth[0].mac packetDropIncorrectlyReceived:count 0
attr interpolationmode none
attr recordingmode count
attr source packetDropReasonIsIncorrectlyReceived(packetDropped)
attr title "packet drop: incorrectly received, count"
scalar Rede_Satelite_LEO.orgB.eth[0].mac packetDropIncorrectlyReceived:sum(packetBytes) 0
attr interpolationmode none
attr recordingmode sum(packetBytes)
attr source packetDropReasonIsIncorrectlyReceived(packetDropped)
attr title "packet drop: incorrectly received, sum(packetBytes)"
scalar Rede_Satelite_LEO.orgB.eth[0].mac packetDropInterfaceDown:count 0
attr interpolationmode none
attr recordingmode count
attr source packetDropReasonIsInterfaceDown(packetDropped)
attr title "packet drop: interface down, count"
scalar Rede_Satelite_LEO.orgB.eth[0].mac packetDropInterfaceDown:sum(packetBytes) 0
attr interpolationmode none
attr recordingmode sum(packetBytes)
attr source packetDropReasonIsInterfaceDown(packetDropped)
attr title "packet drop: interface down, sum(packetBytes)"
scalar Rede_Satelite_LEO.orgB.eth[0].mac packetDropNotAddressedToUs:count 0
attr interpolationmode none
attr recordingmode count
attr source packetDropReasonIsNotAddressedToUs(packetDropped)
attr title "packet drop: not addressed to us, count"
scalar Rede_Satelite_LEO.orgB.eth[0].mac packetDropNotAddressedToUs:sum(packetBytes) 0
attr interpolationmode none
attr recordingmode sum(packetBytes)
attr source packetDropReasonIsNotAddressedToUs(packetDropped)
attr title "packet drop: not addressed to us, sum(packetBytes)"
scalar Rede_Satelite_LEO.orgB.eth[0].mac rxPausePkUnits:count 0
attr interpolationmode none
attr recordingmode count
attr title "pause units received, count"
scalar Rede_Satelite_LEO.orgB.eth[0].mac rxPausePkUnits:sum 0
attr interpolationmode none
attr recordingmode sum
attr title "pause units received, sum"
scalar Rede_Satelite_LEO.orgB.eth[0].mac txPausePkUnits:count 0
attr interpolationmode none
attr recordingmode count
attr title "pause units sent, count"
scalar Rede_Satelite_LEO.orgB.eth[0].mac txPausePkUnits:sum 0
attr interpolationmode none
attr recordingmode sum
attr title "pause units sent, sum"
scalar Rede_Satelite_LEO.orgB.eth[0].mac rxPkOk:count 56
attr interpolationmode none
attr recordingmode count
attr source rxPkOk
attr title "packets received OK, count"
scalar Rede_Satelite_LEO.orgB.eth[0].mac rxPkOk:sum(packetBytes) 58914
attr interpolationmode none
attr recordingmode sum(packetBytes)
attr source rxPkOk
attr title "packets received OK, sum(packetBytes)"
par Rede_Satelite_LEO.orgB.eth[0] typename "\"inet.linklayer.ethernet.EthernetInterface\""
par Rede_Satelite_LEO.orgB.eth[0] displayStringTextFormat "\"%a (%i)\\n%m\""
par Rede_Satelite_LEO.orgB.eth[0] recordPcap false
par Rede_Satelite_LEO.orgB.eth[0] numPcapRecorders 0
par Rede_Satelite_LEO.orgB.eth[0] interfaceTableModule "\"Rede_Satelite_LEO.orgB.interfaceTable\""
par Rede_Satelite_LEO.orgB.eth[0] protocol "\"ethernetmac\""
par Rede_Satelite_LEO.orgB.eth[0] address "\"0A-AA-00-00-00-02\""
attr mutable ""
par Rede_Satelite_LEO.orgB.eth[0] duplexMode true
par Rede_Satelite_LEO.orgB.eth[0] csmacdSupport false
par Rede_Satelite_LEO.orgB.eth[0] bitrate 0bps
attr unit bps
par Rede_Satelite_LEO.orgB.eth[0] fcsMode "\"declared\""
attr enum declared,computed
scalar Rede_Satelite_LEO.orgB.eth[0] packetDropInterfaceDown:count 0
attr interpolationmode none
attr recordingmode count
attr source packetDropReasonIsInterfaceDown(packetDropped)
attr title "packet drops: interface down, count"
scalar Rede_Satelite_LEO.orgB.eth[0] packetDropInterfaceDown:sum(packetBytes) 0
attr interpolationmode none
attr recordingmode sum(packetBytes)
attr source packetDropReasonIsInterfaceDown(packetDropped)
attr title "packet drops: interface down, sum(packetBytes)"
scalar Rede_Satelite_LEO.orgB.eth[0] packetDropNoCarrier:count 0
attr interpolationmode none
attr recordingmode count
attr source packetDropReasonIsNoCarrier(packetDropped)
attr title "packet drops: no carrier, count"
scalar Rede_Satelite_LEO.orgB.eth[0] packetDropNoCarrier:sum(packetBytes) 0
attr interpolationmode none
attr recordingmode sum(packetBytes)
attr source packetDropReasonIsNoCarrier(packetDropped)
attr title "packet drops: no carrier, sum(packetBytes)"
par Rede_Satelite_LEO.orgB.ipv4.transportIn.channel typename "\"ned.IdealChannel\""
par Rede_Satelite_LEO.orgB.ipv4.up.out[0].channel typename "\"ned.IdealChannel\""
par Rede_Satelite_LEO.orgB.ipv4.lp.out[2].channel typename "\"ned.IdealChannel\""
par Rede_Satelite_LEO.orgB.ipv4.ifIn.channel typename "\"ned.IdealChannel\""
par Rede_Satelite_LEO.orgB.ipv4.configurator typename "\"inet.networklayer.configurator.ipv4.Ipv4NodeConfigurator\""
par Rede_Satelite_LEO.orgB.ipv4.configurator interfaceTableModule "\"Rede_Satelite_LEO.orgB.interfaceTable\""
par Rede_Satelite_LEO.orgB.ipv4.configurator routingTableModule "\"Rede_Satelite_LEO.orgB.ipv4.routingTable\""
par Rede_Satelite_LEO.orgB.ipv4.configurator networkConfiguratorModule "\"configurator\""
par Rede_Satelite_LEO.orgB.ipv4.configurator configureRoutingTable true
par Rede_Satelite_LEO.orgB.ipv4.routingTable typename "\"inet.networklayer.ipv4.Ipv4RoutingTable\""
par Rede_Satelite_LEO.orgB.ipv4.routingTable interfaceTableModule "\"Rede_Satelite_LEO.orgB.interfaceTable\""
par Rede_Satelite_LEO.orgB.ipv4.routingTable routerId "\"auto\""
par Rede_Satelite_LEO.orgB.ipv4.routingTable netmaskRoutes "\"*\""
par Rede_Satelite_LEO.orgB.ipv4.routingTable forwarding false
par Rede_Satelite_LEO.orgB.ipv4.routingTable multicastForwarding false
par Rede_Satelite_LEO.orgB.ipv4.routingTable useAdminDist false
par Rede_Satelite_LEO.orgB.ipv4.routingTable routingFile "\"\""
par Rede_Satelite_LEO.orgB.ipv4.natTable typename "\"inet.networklayer.ipv4.Ipv4NatTable\""
par Rede_Satelite_LEO.orgB.ipv4.natTable networkProtocolModule "\"^.ip\""
par Rede_Satelite_LEO.orgB.ipv4.natTable config "<config/> at content:1"
par Rede_Satelite_LEO.orgB.ipv4.up typename "\"inet.common.MessageDispatcher\""
par Rede_Satelite_LEO.orgB.ipv4.up displayStringTextFormat "\"processed %p pk (%l)\""
par Rede_Satelite_LEO.orgB.ipv4.up forwardServiceRegistration true
par Rede_Satelite_LEO.orgB.ipv4.up forwardProtocolRegistration true
par Rede_Satelite_LEO.orgB.ipv4.igmp typename "\"inet.networklayer.ipv4.Igmpv2\""
par Rede_Satelite_LEO.orgB.ipv4.igmp interfaceTableModule "\"Rede_Satelite_LEO.orgB.interfaceTable\""
par Rede_Satelite_LEO.orgB.ipv4.igmp routingTableModule "\"Rede_Satelite_LEO.orgB.ipv4.routingTable\""
par Rede_Satelite_LEO.orgB.ipv4.igmp crcMode "\"declared\""
attr enum declared,computed
par Rede_Satelite_LEO.orgB.ipv4.igmp enabled true
par Rede_Satelite_LEO.orgB.ipv4.igmp robustnessVariable 2
par Rede_Satelite_LEO.orgB.ipv4.igmp queryInterval 125s
attr unit s
par Rede_Satelite_LEO.orgB.ipv4.igmp queryResponseInterval 10s
attr unit s
par Rede_Satelite_LEO.orgB.ipv4.igmp groupMembershipInterval 260s
attr unit s
par Rede_Satelite_LEO.orgB.ipv4.igmp otherQuerierPresentInterval 255s
attr unit s
par Rede_Satelite_LEO.orgB.ipv4.igmp startupQueryInterval 31.25s
attr unit s
par Rede_Satelite_LEO.orgB.ipv4.igmp startupQueryCount 2
par Rede_Satelite_LEO.orgB.ipv4.igmp lastMemberQueryInterval 1s
attr unit s
par Rede_Satelite_LEO.orgB.ipv4.igmp lastMemberQueryCount 2
par Rede_Satelite_LEO.orgB.ipv4.igmp unsolicitedReportInterval 10s
attr unit s
par Rede_Satelite_LEO.orgB.ipv4.icmp typename "\"inet.networklayer.ipv4.Icmp\""
par Rede_Satelite_LEO.orgB.ipv4.icmp interfaceTableModule "\"Rede_Satelite_LEO.orgB.interfaceTable\""
par Rede_Satelite_LEO.orgB.ipv4.icmp routingTableModule "\"Rede_Satelite_LEO.orgB.ipv4.routingTable\""
par Rede_Satelite_LEO.orgB.ipv4.icmp crcMode "\"declared\""
attr enum declared,computed
attr mutable ""
par Rede_Satelite_LEO.orgB.ipv4.icmp quoteLength 8B
attr mutable ""
attr unit B
par Rede_Satelite_LEO.orgB.ipv4.mp typename "\"inet.common.MessageDispatcher\""
par Rede_Satelite_LEO.orgB.ipv4.mp displayStringTextFormat "\"processed %p pk (%l)\""
par Rede_Satelite_LEO.orgB.ipv4.mp forwardServiceRegistration true
par Rede_Satelite_LEO.orgB.ipv4.mp forwardProtocolRegistration true
par Rede_Satelite_LEO.orgB.ipv4.ip typename "\"inet.networklayer.ipv4.Ipv4\""
par Rede_Satelite_LEO.orgB.ipv4.ip interfaceTableModule "\"Rede_Satelite_LEO.orgB.interfaceTable\""
par Rede_Satelite_LEO.orgB.ipv4.ip routingTableModule "\"Rede_Satelite_LEO.orgB.ipv4.routingTable\""
par Rede_Satelite_LEO.orgB.ipv4.ip arpModule "\"Rede_Satelite_LEO.orgB.ipv4.arp\""
par Rede_Satelite_LEO.orgB.ipv4.ip icmpModule "\"Rede_Satelite_LEO.orgB.ipv4.icmp\""
par Rede_Satelite_LEO.orgB.ipv4.ip crcMode "\"declared\""
attr enum declared,computed
par Rede_Satelite_LEO.orgB.ipv4.ip timeToLive 32
par Rede_Satelite_LEO.orgB.ipv4.ip multicastTimeToLive 32
par Rede_Satelite_LEO.orgB.ipv4.ip fragmentTimeout 60s
attr unit s
par Rede_Satelite_LEO.orgB.ipv4.ip limitedBroadcast false
par Rede_Satelite_LEO.orgB.ipv4.ip directBroadcastInterfaces "\"\""
scalar Rede_Satelite_LEO.orgB.ipv4.ip packetDropAddressResolutionFailed:count 0
attr interpolationmode none
attr recordingmode count
attr source packetDropReasonIsAddressResolutionFailed(packetDropped)
attr title "packet drop: address resolution failed, count"
scalar Rede_Satelite_LEO.orgB.ipv4.ip packetDropAddressResolutionFailed:sum(packetBytes) 0
attr interpolationmode none
attr recordingmode sum(packetBytes)
attr source packetDropReasonIsAddressResolutionFailed(packetDropped)
attr title "packet drop: address resolution failed, sum(packetBytes)"
scalar Rede_Satelite_LEO.orgB.ipv4.ip packetDropHopLimitReached:count 0
attr interpolationmode none
attr recordingmode count
attr source packetDropReasonIsHopLimitReached(packetDropped)
attr title "packet drop: hop limit reached, count"
scalar Rede_Satelite_LEO.orgB.ipv4.ip packetDropHopLimitReached:sum(packetBytes) 0
attr interpolationmode none
attr recordingmode sum(packetBytes)
attr source packetDropReasonIsHopLimitReached(packetDropped)
attr title "packet drop: hop limit reached, sum(packetBytes)"
scalar Rede_Satelite_LEO.orgB.ipv4.ip packetDropForwardingDisabled:count 0
attr interpolationmode none
attr recordingmode count
attr source packetDropReasonIsForwardingDisabled(packetDropped)
attr title "packet drop: forwarding disabled, count"
scalar Rede_Satelite_LEO.orgB.ipv4.ip packetDropForwardingDisabled:sum(packetBytes) 0
attr interpolationmode none
attr recordingmode sum(packetBytes)
attr source packetDropReasonIsForwardingDisabled(packetDropped)
attr title "packet drop: forwarding disabled, sum(packetBytes)"
scalar Rede_Satelite_LEO.orgB.ipv4.ip packetDropNoInterfaceFound:count 0
attr interpolationmode none
attr recordingmode count
attr source packetDropReasonIsNoInterfaceFound(packetDropped)
attr title "packet drop: no interface found, count"
scalar Rede_Satelite_LEO.orgB.ipv4.ip packetDropNoInterfaceFound:sum(packetBytes) 0
attr interpolationmode none
attr recordingmode sum(packetBytes)
attr source packetDropReasonIsNoInterfaceFound(packetDropped)
attr title "packet drop: no interface found, sum(packetBytes)"
scalar Rede_Satelite_LEO.orgB.ipv4.ip packetDropNoRouteFound:count 0
attr interpolationmode none
attr recordingmode count
attr source packetDropReasonIsNoRouteFound(packetDropped)
attr title "packet drop: no route found, count"
scalar Rede_Satelite_LEO.orgB.ipv4.ip packetDropNoRouteFound:sum(packetBytes) 0
attr interpolationmode none
attr recordingmode sum(packetBytes)
attr source packetDropReasonIsNoRouteFound(packetDropped)
attr title "packet drop: no route found, sum(packetBytes)"
scalar Rede_Satelite_LEO.orgB.ipv4.ip packetDropUndefined:count 0
attr interpolationmode none
attr recordingmode count
attr source packetDropReasonIsUndefined(packetDropped)
attr title "packet drop: undefined, count"
scalar Rede_Satelite_LEO.orgB.ipv4.ip packetDropUndefined:sum(packetBytes) 0
attr interpolationmode none
attr recordingmode sum(packetBytes)
attr source packetDropReasonIsUndefined(packetDropped)
attr title "packet drop: undefined, sum(packetBytes)"
par Rede_Satelite_LEO.orgB.ipv4.arp typename "\"inet.networklayer.arp.ipv4.Arp\""
par Rede_Satelite_LEO.orgB.ipv4.arp interfaceTableModule "\"Rede_Satelite_LEO.orgB.interfaceTable\""
par Rede_Satelite_LEO.orgB.ipv4.arp routingTableModule "\"Rede_Satelite_LEO.orgB.ipv4.routingTable\""
par Rede_Satelite_LEO.orgB.ipv4.arp retryTimeout 1s
attr unit s
par Rede_Satelite_LEO.orgB.ipv4.arp retryCount 3
par Rede_Satelite_LEO.orgB.ipv4.arp cacheTimeout 120s
attr unit s
par Rede_Satelite_LEO.orgB.ipv4.arp proxyArpInterfaces "\"\""
scalar Rede_Satelite_LEO.orgB.ipv4.arp arpReplySent:count 0
attr recordingmode count
attr source arpReplySent
attr title "ARP replies sent, count"
scalar Rede_Satelite_LEO.orgB.ipv4.arp arpReplySent:sum(packetBytes) 0
attr recordingmode sum(packetBytes)
attr source arpReplySent
attr title "ARP replies sent, sum(packetBytes)"
scalar Rede_Satelite_LEO.orgB.ipv4.arp arpRequestSent:count 1
attr recordingmode count
attr source arpRequestSent
attr title "ARP request sent, count"
scalar Rede_Satelite_LEO.orgB.ipv4.arp arpRequestSent:sum(packetBytes) 28
attr recordingmode sum(packetBytes)
attr source arpRequestSent
attr title "ARP request sent, sum(packetBytes)"
scalar Rede_Satelite_LEO.orgB.ipv4.arp arpResolutionFailed:count 0
attr recordingmode count
attr title "ARP failed resolutions, count"
scalar Rede_Satelite_LEO.orgB.ipv4.arp arpResolutionCompleted:count 1
attr recordingmode count
attr title "ARP completed resolutions, count"
scalar Rede_Satelite_LEO.orgB.ipv4.arp arpResolutionInitiated:count 1
attr recordingmode count
attr title "ARP initiated resolutions, count"
par Rede_Satelite_LEO.orgB.ipv4.lp typename "\"inet.common.MessageDispatcher\""
par Rede_Satelite_LEO.orgB.ipv4.lp displayStringTextFormat "\"processed %p pk (%l)\""
par Rede_Satelite_LEO.orgB.ipv4.lp forwardServiceRegistration true
par Rede_Satelite_LEO.orgB.ipv4.lp forwardProtocolRegistration true
par Rede_Satelite_LEO.orgB.ipv4 typename "\"inet.networklayer.ipv4.Ipv4NetworkLayer\""
par Rede_Satelite_LEO.orgB.ipv4 forwarding false
par Rede_Satelite_LEO.orgB.ipv4 multicastForwarding false
par Rede_Satelite_LEO.orgB.ipv4 interfaceTableModule "\"Rede_Satelite_LEO.orgB.interfaceTable\""
par Rede_Satelite_LEO.orgB.ipv4 displayStringTextFormat "\"%i\""
par Rede_Satelite_LEO.orgB.nl typename "\"inet.common.MessageDispatcher\""
par Rede_Satelite_LEO.orgB.nl displayStringTextFormat "\"processed %p pk (%l)\""
par Rede_Satelite_LEO.orgB.nl forwardServiceRegistration true
par Rede_Satelite_LEO.orgB.nl forwardProtocolRegistration true
par Rede_Satelite_LEO.orgB.udp typename "\"inet.transportlayer.udp.Udp\""
par Rede_Satelite_LEO.orgB.udp interfaceTableModule "\"Rede_Satelite_LEO.orgB.interfaceTable\""
par Rede_Satelite_LEO.orgB.udp icmpModule "\"^.ipv4.icmp\""
par Rede_Satelite_LEO.orgB.udp icmpv6Module "\"^.ipv6.icmpv6\""
par Rede_Satelite_LEO.orgB.udp crcMode "\"declared\""
attr enum disabled,declared,computed
par Rede_Satelite_LEO.orgB.udp defaultMulticastLoop true
scalar Rede_Satelite_LEO.orgB.udp packetReceived:count 55
attr interpolationmode none
attr recordingmode count
attr source packetReceived
attr title "packets received, count"
scalar Rede_Satelite_LEO.orgB.udp packetReceived:sum(packetBytes) 56760
attr interpolationmode none
attr recordingmode sum(packetBytes)
attr source packetReceived
attr title "packets received, sum(packetBytes)"
scalar Rede_Satelite_LEO.orgB.udp packetSent:count 57
attr interpolationmode none
attr recordingmode count
attr source packetSent
attr title "packets sent, count"
scalar Rede_Satelite_LEO.orgB.udp packetSent:sum(packetBytes) 58824
attr interpolationmode none
attr recordingmode sum(packetBytes)
attr source packetSent
attr title "packets sent, sum(packetBytes)"
scalar Rede_Satelite_LEO.orgB.udp passedUpPk:count 55
attr interpolationmode none
attr recordingmode count
attr source packetSentToUpper
attr title "packets passed up, count"
scalar Rede_Satelite_LEO.orgB.udp droppedPkWrongPort:count 0
attr interpolationmode none
attr recordingmode count
attr source packetDropReasonIsNoPortFound(packetDropped)
attr title "packets dropped (wrong port), count"
scalar Rede_Satelite_LEO.orgB.udp droppedPkBadChecksum:count 0
attr interpolationmode none
attr recordingmode count
attr source packetDropReasonIsIncorrectlyReceived(packetDropped)
attr title "packets dropped (checksum error), count"
par Rede_Satelite_LEO.orgB.tcp typename "\"inet.transportlayer.tcp.Tcp\""
par Rede_Satelite_LEO.orgB.tcp crcMode "\"declared\""
attr enum declared,computed
par Rede_Satelite_LEO.orgB.tcp advertisedWindow 7504
par Rede_Satelite_LEO.orgB.tcp delayedAcksEnabled false
par Rede_Satelite_LEO.orgB.tcp nagleEnabled true
par Rede_Satelite_LEO.orgB.tcp limitedTransmitEnabled false
par Rede_Satelite_LEO.orgB.tcp increasedIWEnabled false
[...]
attr recordingmode sum
attr source packetLength(packetPulled)
attr title "outgoing packet lengths, sum"
attr unit b
statistic Rede_Satelite_LEO.satelite.ppp[1].queue outgoingPacketLengths:histogram
field count 56
field mean 8416
field stddev 0
field min 8416
field max 8416
field sum 471296
field sqrsum 3966427136
attr interpolationmode none
attr recordingmode histogram
attr source packetLength(packetPulled)
attr title "outgoing packet lengths"
attr unit b
bin	-inf	0
bin	8415	0
bin	8416	56
bin	8417	0
statistic Rede_Satelite_LEO.satelite.ppp[1].queue flowQueueingTime:histogram
field count 0
field mean -nan(ind)
field stddev nan
field min nan
field max nan
field sum 0
field sqrsum 0
attr interpolationmode none
attr recordingmode histogram
attr source queueingTime(demuxFlow(packetPulled))
attr title "flow queueing times"
attr unit s
bin	-inf	0
bin	0	0
bin	1	0
scalar Rede_Satelite_LEO.satelite.ppp[1].queue incomingPackets:count 56
attr recordingmode count
attr source packetPushStarted
attr title "incoming packets, count"
attr unit pk
scalar Rede_Satelite_LEO.satelite.ppp[1].queue incomingPacketLengths:sum 471296
attr interpolationmode none
attr recordingmode sum
attr source packetLength(packetPushStarted)
attr title "incoming packet lengths, sum"
attr unit b
statistic Rede_Satelite_LEO.satelite.ppp[1].queue incomingPacketLengths:histogram
field count 56
field mean 8416
field stddev 0
field min 8416
field max 8416
field sum 471296
field sqrsum 3966427136
attr interpolationmode none
attr recordingmode histogram
attr source packetLength(packetPushStarted)
attr title "incoming packet lengths"
attr unit b
bin	-inf	0
bin	8415	0
bin	8416	56
bin	8417	0
scalar Rede_Satelite_LEO.satelite.ppp[1].queue droppedPacketsQueueOverflow:count 0
attr interpolationmode none
attr recordingmode count
attr source packetDropReasonIsQueueOverflow(packetDropped)
attr title "dropped packets: queue overflow, count"
attr unit pk
scalar Rede_Satelite_LEO.satelite.ppp[1].queue droppedPacketLengthsQueueOverflow:sum 0
attr interpolationmode none
attr recordingmode sum
attr source packetLength(packetDropReasonIsQueueOverflow(packetDropped))
attr title "dropped packet lengths: queue overflow, sum"
attr unit b
par Rede_Satelite_LEO.satelite.ppp[1].ppp typename "\"inet.linklayer.ppp.Ppp\""
par Rede_Satelite_LEO.satelite.ppp[1].ppp interfaceTableModule "\"Rede_Satelite_LEO.satelite.interfaceTable\""
par Rede_Satelite_LEO.satelite.ppp[1].ppp displayStringTextFormat "\"rate: %b\\nsent: %s, rcvd: %r\\nqueue: %q, drop: %d\""
par Rede_Satelite_LEO.satelite.ppp[1].ppp sendRawBytes false
par Rede_Satelite_LEO.satelite.ppp[1].ppp mtu 4470B
attr unit B
par Rede_Satelite_LEO.satelite.ppp[1].ppp stopOperationExtraTime -1s
attr unit s
par Rede_Satelite_LEO.satelite.ppp[1].ppp stopOperationTimeout 2s
attr unit s
scalar Rede_Satelite_LEO.satelite.ppp[1].ppp txPk:count 56
attr interpolationmode none
attr recordingmode count
attr source packetSentToLower
attr title "packets transmitted, count"
scalar Rede_Satelite_LEO.satelite.ppp[1].ppp txPk:sum(packetBytes) 59304
attr interpolationmode none
attr recordingmode sum(packetBytes)
attr source packetSentToLower
attr title "packets transmitted, sum(packetBytes)"
scalar Rede_Satelite_LEO.satelite.ppp[1].ppp rcvdPkFromHl:count 56
attr interpolationmode none
attr recordingmode count
attr source packetReceivedFromUpper
attr title "packets received from higher layer, count"
scalar Rede_Satelite_LEO.satelite.ppp[1].ppp rcvdPkFromHl:sum(packetBytes) 58912
attr interpolationmode none
attr recordingmode sum(packetBytes)
attr source packetReceivedFromUpper
attr title "packets received from higher layer, sum(packetBytes)"
scalar Rede_Satelite_LEO.satelite.ppp[1].ppp passedUpPk:count 57
attr interpolationmode none
attr recordingmode count
attr source packetSentToUpper
attr title "packets passed to higher layer, count"
scalar Rede_Satelite_LEO.satelite.ppp[1].ppp passedUpPk:sum(packetBytes) 59964
attr interpolationmode none
attr recordingmode sum(packetBytes)
attr source packetSentToUpper
attr title "packets passed to higher layer, sum(packetBytes)"
scalar Rede_Satelite_LEO.satelite.ppp[1].ppp packetDropIncorrectlyReceived:count 0
attr interpolationmode none
attr recordingmode count
attr source packetDropReasonIsIncorrectlyReceived(packetDropped)
attr title "packet drop: incorrectly received, count"
scalar Rede_Satelite_LEO.satelite.ppp[1].ppp packetDropIncorrectlyReceived:sum(packetBytes) 0
attr interpolationmode none
attr recordingmode sum(packetBytes)
attr source packetDropReasonIsIncorrectlyReceived(packetDropped)
attr title "packet drop: incorrectly received, sum(packetBytes)"
scalar Rede_Satelite_LEO.satelite.ppp[1].ppp packetDropInterfaceDown:count 0
attr interpolationmode none
attr recordingmode count
attr source packetDropReasonIsInterfaceDown(packetDropped)
attr title "packet drop: interface down, count"
scalar Rede_Satelite_LEO.satelite.ppp[1].ppp packetDropInterfaceDown:sum(packetBytes) 0
attr interpolationmode none
attr recordingmode sum(packetBytes)
attr source packetDropReasonIsInterfaceDown(packetDropped)
attr title "packet drop: interface down, sum(packetBytes)"
scalar Rede_Satelite_LEO.satelite.ppp[1].ppp rxPkOk:count 57
attr interpolationmode none
attr recordingmode count
attr source rxPkOk
attr title "packets received OK, count"
scalar Rede_Satelite_LEO.satelite.ppp[1].ppp rxPkOk:sum(packetBytes) 60363
attr interpolationmode none
attr recordingmode sum(packetBytes)
attr source rxPkOk
attr title "packets received OK, sum(packetBytes)"
scalar Rede_Satelite_LEO.satelite.ppp[1].ppp transmissionState:timeavg 0.00071273893526121
attr interpolationmode sample-hold
attr recordingmode timeavg
attr source transmissionStateChanged
attr title "tx state, timeavg"
par Rede_Satelite_LEO.satelite.ppp[1] typename "\"inet.linklayer.ppp.PppInterface\""
par Rede_Satelite_LEO.satelite.ppp[1] displayStringTextFormat "\"%a (%i)\\n%m\""
par Rede_Satelite_LEO.satelite.ppp[1] recordPcap false
par Rede_Satelite_LEO.satelite.ppp[1] numPcapRecorders 0
par Rede_Satelite_LEO.satelite.ppp[1] interfaceTableModule "\"Rede_Satelite_LEO.satelite.interfaceTable\""
scalar Rede_Satelite_LEO.satelite.ppp[1] packetDropInterfaceDown:count 0
attr interpolationmode none
attr recordingmode count
attr source packetDropReasonIsInterfaceDown(packetDropped)
attr title "packet drops: interface down, count"
scalar Rede_Satelite_LEO.satelite.ppp[1] packetDropInterfaceDown:sum(packetBytes) 0
attr interpolationmode none
attr recordingmode sum(packetBytes)
attr source packetDropReasonIsInterfaceDown(packetDropped)
attr title "packet drops: interface down, sum(packetBytes)"
scalar Rede_Satelite_LEO.satelite.ppp[1] packetDropNoCarrier:count 0
attr interpolationmode none
attr recordingmode count
attr source packetDropReasonIsNoCarrier(packetDropped)
attr title "packet drops: no carrier, count"
scalar Rede_Satelite_LEO.satelite.ppp[1] packetDropNoCarrier:sum(packetBytes) 0
attr interpolationmode none
attr recordingmode sum(packetBytes)
attr source packetDropReasonIsNoCarrier(packetDropped)
attr title "packet drops: no carrier, sum(packetBytes)"
par Rede_Satelite_LEO.satelite.ipv4.transportIn.channel typename "\"ned.IdealChannel\""
par Rede_Satelite_LEO.satelite.ipv4.up.out[0].channel typename "\"ned.IdealChannel\""
par Rede_Satelite_LEO.satelite.ipv4.lp.out[2].channel typename "\"ned.IdealChannel\""
par Rede_Satelite_LEO.satelite.ipv4.ifIn.channel typename "\"ned.IdealChannel\""
par Rede_Satelite_LEO.satelite.ipv4.configurator typename "\"inet.networklayer.configurator.ipv4.Ipv4NodeConfigurator\""
par Rede_Satelite_LEO.satelite.ipv4.configurator interfaceTableModule "\"Rede_Satelite_LEO.satelite.interfaceTable\""
par Rede_Satelite_LEO.satelite.ipv4.configurator routingTableModule "\"Rede_Satelite_LEO.satelite.ipv4.routingTable\""
par Rede_Satelite_LEO.satelite.ipv4.configurator networkConfiguratorModule "\"configurator\""
par Rede_Satelite_LEO.satelite.ipv4.configurator configureRoutingTable true
par Rede_Satelite_LEO.satelite.ipv4.routingTable typename "\"inet.networklayer.ipv4.Ipv4RoutingTable\""
par Rede_Satelite_LEO.satelite.ipv4.routingTable interfaceTableModule "\"Rede_Satelite_LEO.satelite.interfaceTable\""
par Rede_Satelite_LEO.satelite.ipv4.routingTable routerId "\"auto\""
par Rede_Satelite_LEO.satelite.ipv4.routingTable netmaskRoutes "\"*\""
par Rede_Satelite_LEO.satelite.ipv4.routingTable forwarding true
par Rede_Satelite_LEO.satelite.ipv4.routingTable multicastForwarding false
par Rede_Satelite_LEO.satelite.ipv4.routingTable useAdminDist false
par Rede_Satelite_LEO.satelite.ipv4.routingTable routingFile "\"\""
par Rede_Satelite_LEO.satelite.ipv4.natTable typename "\"inet.networklayer.ipv4.Ipv4NatTable\""
par Rede_Satelite_LEO.satelite.ipv4.natTable networkProtocolModule "\"^.ip\""
par Rede_Satelite_LEO.satelite.ipv4.natTable config "<config/> at content:1"
par Rede_Satelite_LEO.satelite.ipv4.up typename "\"inet.common.MessageDispatcher\""
par Rede_Satelite_LEO.satelite.ipv4.up displayStringTextFormat "\"processed %p pk (%l)\""
par Rede_Satelite_LEO.satelite.ipv4.up forwardServiceRegistration true
par Rede_Satelite_LEO.satelite.ipv4.up forwardProtocolRegistration true
par Rede_Satelite_LEO.satelite.ipv4.igmp typename "\"inet.networklayer.ipv4.Igmpv2\""
par Rede_Satelite_LEO.satelite.ipv4.igmp interfaceTableModule "\"Rede_Satelite_LEO.satelite.interfaceTable\""
par Rede_Satelite_LEO.satelite.ipv4.igmp routingTableModule "\"Rede_Satelite_LEO.satelite.ipv4.routingTable\""
par Rede_Satelite_LEO.satelite.ipv4.igmp crcMode "\"declared\""
attr enum declared,computed
par Rede_Satelite_LEO.satelite.ipv4.igmp enabled true
par Rede_Satelite_LEO.satelite.ipv4.igmp robustnessVariable 2
par Rede_Satelite_LEO.satelite.ipv4.igmp queryInterval 125s
attr unit s
par Rede_Satelite_LEO.satelite.ipv4.igmp queryResponseInterval 10s
attr unit s
par Rede_Satelite_LEO.satelite.ipv4.igmp groupMembershipInterval 260s
attr unit s
par Rede_Satelite_LEO.satelite.ipv4.igmp otherQuerierPresentInterval 255s
attr unit s
par Rede_Satelite_LEO.satelite.ipv4.igmp startupQueryInterval 31.25s
attr unit s
par Rede_Satelite_LEO.satelite.ipv4.igmp startupQueryCount 2
par Rede_Satelite_LEO.satelite.ipv4.igmp lastMemberQueryInterval 1s
attr unit s
par Rede_Satelite_LEO.satelite.ipv4.igmp lastMemberQueryCount 2
par Rede_Satelite_LEO.satelite.ipv4.igmp unsolicitedReportInterval 10s
attr unit s
par Rede_Satelite_LEO.satelite.ipv4.icmp typename "\"inet.networklayer.ipv4.Icmp\""
par Rede_Satelite_LEO.satelite.ipv4.icmp interfaceTableModule "\"Rede_Satelite_LEO.satelite.interfaceTable\""
par Rede_Satelite_LEO.satelite.ipv4.icmp routingTableModule "\"Rede_Satelite_LEO.satelite.ipv4.routingTable\""
par Rede_Satelite_LEO.satelite.ipv4.icmp crcMode "\"declared\""
attr enum declared,computed
attr mutable ""
par Rede_Satelite_LEO.satelite.ipv4.icmp quoteLength 8B
attr mutable ""
attr unit B
par Rede_Satelite_LEO.satelite.ipv4.mp typename "\"inet.common.MessageDispatcher\""
par Rede_Satelite_LEO.satelite.ipv4.mp displayStringTextFormat "\"processed %p pk (%l)\""
par Rede_Satelite_LEO.satelite.ipv4.mp forwardServiceRegistration true
par Rede_Satelite_LEO.satelite.ipv4.mp forwardProtocolRegistration true
par Rede_Satelite_LEO.satelite.ipv4.ip typename "\"inet.networklayer.ipv4.Ipv4\""
par Rede_Satelite_LEO.satelite.ipv4.ip interfaceTableModule "\"Rede_Satelite_LEO.satelite.interfaceTable\""
par Rede_Satelite_LEO.satelite.ipv4.ip routingTableModule "\"Rede_Satelite_LEO.satelite.ipv4.routingTable\""
par Rede_Satelite_LEO.satelite.ipv4.ip arpModule "\"Rede_Satelite_LEO.satelite.ipv4.arp\""
par Rede_Satelite_LEO.satelite.ipv4.ip icmpModule "\"Rede_Satelite_LEO.satelite.ipv4.icmp\""
par Rede_Satelite_LEO.satelite.ipv4.ip crcMode "\"declared\""
attr enum declared,computed
par Rede_Satelite_LEO.satelite.ipv4.ip timeToLive 32
par Rede_Satelite_LEO.satelite.ipv4.ip multicastTimeToLive 32
par Rede_Satelite_LEO.satelite.ipv4.ip fragmentTimeout 60s
attr unit s
par Rede_Satelite_LEO.satelite.ipv4.ip limitedBroadcast false
par Rede_Satelite_LEO.satelite.ipv4.ip directBroadcastInterfaces "\"\""
scalar Rede_Satelite_LEO.satelite.ipv4.ip packetDropAddressResolutionFailed:count 0
attr interpolationmode none
attr recordingmode count
attr source packetDropReasonIsAddressResolutionFailed(packetDropped)
attr title "packet drop: address resolution failed, count"
scalar Rede_Satelite_LEO.satelite.ipv4.ip packetDropAddressResolutionFailed:sum(packetBytes) 0
attr interpolationmode none
attr recordingmode sum(packetBytes)
attr source packetDropReasonIsAddressResolutionFailed(packetDropped)
attr title "packet drop: address resolution failed, sum(packetBytes)"
scalar Rede_Satelite_LEO.satelite.ipv4.ip packetDropHopLimitReached:count 0
attr interpolationmode none
attr recordingmode count
attr source packetDropReasonIsHopLimitReached(packetDropped)
attr title "packet drop: hop limit reached, count"
scalar Rede_Satelite_LEO.satelite.ipv4.ip packetDropHopLimitReached:sum(packetBytes) 0
attr interpolationmode none
attr recordingmode sum(packetBytes)
attr source packetDropReasonIsHopLimitReached(packetDropped)
attr title "packet drop: hop limit reached, sum(packetBytes)"
scalar Rede_Satelite_LEO.satelite.ipv4.ip packetDropForwardingDisabled:count 0
attr interpolationmode none
attr recordingmode count
attr source packetDropReasonIsForwardingDisabled(packetDropped)
attr title "packet drop: forwarding disabled, count"
scalar Rede_Satelite_LEO.satelite.ipv4.ip packetDropForwardingDisabled:sum(packetBytes) 0
attr interpolationmode none
attr recordingmode sum(packetBytes)
attr source packetDropReasonIsForwardingDisabled(packetDropped)
attr title "packet drop: forwarding disabled, sum(packetBytes)"
scalar Rede_Satelite_LEO.satelite.ipv4.ip packetDropNoInterfaceFound:count 0
attr interpolationmode none
attr recordingmode count
attr source packetDropReasonIsNoInterfaceFound(packetDropped)
attr title "packet drop: no interface found, count"
scalar Rede_Satelite_LEO.satelite.ipv4.ip packetDropNoInterfaceFound:sum(packetBytes) 0
attr interpolationmode none
attr recordingmode sum(packetBytes)
attr source packetDropReasonIsNoInterfaceFound(packetDropped)
attr title "packet drop: no interface found, sum(packetBytes)"
scalar Rede_Satelite_LEO.satelite.ipv4.ip packetDropNoRouteFound:count 0
attr interpolationmode none
attr recordingmode count
attr source packetDropReasonIsNoRouteFound(packetDropped)
attr title "packet drop: no route found, count"
scalar Rede_Satelite_LEO.satelite.ipv4.ip packetDropNoRouteFound:sum(packetBytes) 0
attr interpolationmode none
attr recordingmode sum(packetBytes)
attr source packetDropReasonIsNoRouteFound(packetDropped)
attr title "packet drop: no route found, sum(packetBytes)"
scalar Rede_Satelite_LEO.satelite.ipv4.ip packetDropUndefined:count 0
attr interpolationmode none
attr recordingmode count
attr source packetDropReasonIsUndefined(packetDropped)
attr title "packet drop: undefined, count"
scalar Rede_Satelite_LEO.satelite.ipv4.ip packetDropUndefined:sum(packetBytes) 0
attr interpolationmode none
attr recordingmode sum(packetBytes)
attr source packetDropReasonIsUndefined(packetDropped)
attr title "packet drop: undefined, sum(packetBytes)"
par Rede_Satelite_LEO.satelite.ipv4.arp typename "\"inet.networklayer.arp.ipv4.Arp\""
par Rede_Satelite_LEO.satelite.ipv4.arp interfaceTableModule "\"Rede_Satelite_LEO.satelite.interfaceTable\""
par Rede_Satelite_LEO.satelite.ipv4.arp routingTableModule "\"Rede_Satelite_LEO.satelite.ipv4.routingTable\""
par Rede_Satelite_LEO.satelite.ipv4.arp retryTimeout 1s
attr unit s
par Rede_Satelite_LEO.satelite.ipv4.arp retryCount 3
par Rede_Satelite_LEO.satelite.ipv4.arp cacheTimeout 120s
attr unit s
par Rede_Satelite_LEO.satelite.ipv4.arp proxyArpInterfaces "\"*\""
scalar Rede_Satelite_LEO.satelite.ipv4.arp arpReplySent:count 0
attr recordingmode count
attr source arpReplySent
attr title "ARP replies sent, count"
scalar Rede_Satelite_LEO.satelite.ipv4.arp arpReplySent:sum(packetBytes) 0
attr recordingmode sum(packetBytes)
attr source arpReplySent
attr title "ARP replies sent, sum(packetBytes)"
scalar Rede_Satelite_LEO.satelite.ipv4.arp arpRequestSent:count 0
attr recordingmode count
attr source arpRequestSent
attr title "ARP request sent, count"
scalar Rede_Satelite_LEO.satelite.ipv4.arp arpRequestSent:sum(packetBytes) 0
attr recordingmode sum(packetBytes)
attr source arpRequestSent
attr title "ARP request sent, sum(packetBytes)"
scalar Rede_Satelite_LEO.satelite.ipv4.arp arpResolutionFailed:count 0
attr recordingmode count
attr title "ARP failed resolutions, count"
scalar Rede_Satelite_LEO.satelite.ipv4.arp arpResolutionCompleted:count 0
attr recordingmode count
attr title "ARP completed resolutions, count"
scalar Rede_Satelite_LEO.satelite.ipv4.arp arpResolutionInitiated:count 0
attr recordingmode count
attr title "ARP initiated resolutions, count"
par Rede_Satelite_LEO.satelite.ipv4.lp typename "\"inet.common.MessageDispatcher\""
par Rede_Satelite_LEO.satelite.ipv4.lp displayStringTextFormat "\"processed %p pk (%l)\""
par Rede_Satelite_LEO.satelite.ipv4.lp forwardServiceRegistration true
par Rede_Satelite_LEO.satelite.ipv4.lp forwardProtocolRegistration true
par Rede_Satelite_LEO.satelite.ipv4 typename "\"inet.networklayer.ipv4.Ipv4NetworkLayer\""
par Rede_Satelite_LEO.satelite.ipv4 forwarding true
par Rede_Satelite_LEO.satelite.ipv4 multicastForwarding false
par Rede_Satelite_LEO.satelite.ipv4 interfaceTableModule "\"Rede_Satelite_LEO.satelite.interfaceTable\""
par Rede_Satelite_LEO.satelite.ipv4 displayStringTextFormat "\"%i\""
par Rede_Satelite_LEO.satelite.nl typename "\"inet.common.MessageDispatcher\""
par Rede_Satelite_LEO.satelite.nl displayStringTextFormat "\"processed %p pk (%l)\""
par Rede_Satelite_LEO.satelite.nl forwardServiceRegistration true
par Rede_Satelite_LEO.satelite.nl forwardProtocolRegistration true
par Rede_Satelite_LEO.satelite.tn typename "\"inet.common.MessageDispatcher\""
par Rede_Satelite_LEO.satelite.tn displayStringTextFormat "\"processed %p pk (%l)\""
par Rede_Satelite_LEO.satelite.tn forwardServiceRegistration true
par Rede_Satelite_LEO.satelite.tn forwardProtocolRegistration true
par Rede_Satelite_LEO.satelite.at typename "\"inet.common.MessageDispatcher\""
par Rede_Satelite_LEO.satelite.at displayStringTextFormat "\"processed %p pk (%l)\""
par Rede_Satelite_LEO.satelite.at forwardServiceRegistration true
par Rede_Satelite_LEO.satelite.at forwardProtocolRegistration true
par Rede_Satelite_LEO.satelite typename "\"inet.node.inet.Router\""
par Rede_Satelite_LEO.satelite hasStatus false
par Rede_Satelite_LEO.satelite osgModel "\"\""
par Rede_Satelite_LEO.satelite osgModelColor "\"\""
par Rede_Satelite_LEO.satelite canvasImage "\"\""
par Rede_Satelite_LEO.satelite canvasImageColor "\"\""
par Rede_Satelite_LEO.satelite recordPcap false
par Rede_Satelite_LEO.satelite numPcapRecorders 0
par Rede_Satelite_LEO.satelite numLoInterfaces 1
par Rede_Satelite_LEO.satelite numWlanInterfaces 0
par Rede_Satelite_LEO.satelite numEthInterfaces 0
par Rede_Satelite_LEO.satelite numPppInterfaces 0
par Rede_Satelite_LEO.satelite numTunInterfaces 0
par Rede_Satelite_LEO.satelite numVirtInterfaces 0
par Rede_Satelite_LEO.satelite fcsMode "\"declared\""
attr enum declared,computed
par Rede_Satelite_LEO.satelite hasIpv4 true
par Rede_Satelite_LEO.satelite hasIpv6 false
par Rede_Satelite_LEO.satelite hasGn false
par Rede_Satelite_LEO.satelite forwarding true
par Rede_Satelite_LEO.satelite multicastForwarding false
par Rede_Satelite_LEO.satelite hasUdp false
par Rede_Satelite_LEO.satelite hasTcp false
par Rede_Satelite_LEO.satelite hasSctp false
par Rede_Satelite_LEO.satelite numApps 0
par Rede_Satelite_LEO.satelite hasEigrp false
par Rede_Satelite_LEO.satelite hasOspf false
par Rede_Satelite_LEO.satelite hasRip false
par Rede_Satelite_LEO.satelite hasBgp false
par Rede_Satelite_LEO.satelite hasPim false
par Rede_Satelite_LEO.satelite hasDhcp false
par Rede_Satelite_LEO typename "\"Rede_Satelite_LEO\""

